
---------- Begin Simulation Statistics ----------
final_tick                                10520391000                       # Number of ticks from beginning of simulation (restored from checkpoints and never reset)
host_inst_rate                                 172440                       # Simulator instruction rate (inst/s)
host_mem_usage                                 661996                       # Number of bytes of host memory used
host_op_rate                                   182894                       # Simulator op (including micro ops) rate (op/s)
host_seconds                                   242.64                       # Real time elapsed on the host
host_tick_rate                               43357399                       # Simulator tick rate (ticks/s)
sim_freq                                 1000000000000                       # Frequency of simulated ticks
sim_insts                                    41841385                       # Number of instructions simulated
sim_ops                                      44377998                       # Number of ops (including micro ops) simulated
sim_seconds                                  0.010520                       # Number of seconds simulated
sim_ticks                                 10520391000                       # Number of ticks simulated
system.cpu.cc_regfile_reads                 163819168                       # number of cc regfile reads
system.cpu.cc_regfile_writes                 29083774                       # number of cc regfile writes
system.cpu.committedInsts                    41841385                       # Number of Instructions Simulated
system.cpu.committedOps                      44377998                       # Number of Ops (including micro ops) Simulated
system.cpu.cpi                               0.502870                       # CPI: Cycles Per Instruction
system.cpu.cpi_total                         0.502870                       # CPI: Total CPI of All Threads
system.cpu.idleCycles                           48775                       # Total number of cycles that the CPU has spent unscheduled due to idling
system.cpu.iew.branchMispredicts               142054                       # Number of branch mispredicts detected at execute
system.cpu.iew.exec_branches                 10316850                       # Number of branches executed
system.cpu.iew.exec_nop                             0                       # number of nop insts executed
system.cpu.iew.exec_rate                     2.162587                       # Inst execution rate
system.cpu.iew.exec_refs                     14133530                       # number of memory reference insts executed
system.cpu.iew.exec_stores                    4895819                       # Number of stores executed
system.cpu.iew.exec_swp                             0                       # number of swp insts executed
system.cpu.iew.iewBlockCycles                  222327                       # Number of cycles IEW is blocking
system.cpu.iew.iewDispLoadInsts               9420559                       # Number of dispatched load instructions
system.cpu.iew.iewDispNonSpecInsts              21802                       # Number of dispatched non-speculative instructions
system.cpu.iew.iewDispSquashedInsts            226662                       # Number of squashed instructions skipped by dispatch
system.cpu.iew.iewDispStoreInsts              5024043                       # Number of dispatched store instructions
system.cpu.iew.iewDispatchedInsts            46494741                       # Number of instructions dispatched to IQ
system.cpu.iew.iewExecLoadInsts               9237711                       # Number of load instructions executed
system.cpu.iew.iewExecSquashedInsts            142130                       # Number of squashed instructions skipped in execute
system.cpu.iew.iewExecutedInsts              45502534                       # Number of executed instructions
system.cpu.iew.iewIQFullEvents                   1971                       # Number of times the IQ has become full, causing a stall
system.cpu.iew.iewIdleCycles                        0                       # Number of cycles IEW is idle
system.cpu.iew.iewLSQFullEvents                   239                       # Number of times the LSQ has become full, causing a stall
system.cpu.iew.iewSquashCycles                 129880                       # Number of cycles IEW is squashing
system.cpu.iew.iewUnblockCycles                  2765                       # Number of cycles IEW is unblocking
system.cpu.iew.memOrderViolationEvents            673                       # Number of memory order violations
system.cpu.iew.predictedNotTakenIncorrect        42494                       # Number of branches that were predicted not taken incorrectly
system.cpu.iew.predictedTakenIncorrect          99560                       # Number of branches that were predicted taken incorrectly
system.cpu.iew.wb_consumers                  37926160                       # num instructions consuming a value
system.cpu.iew.wb_count                      45302794                       # cumulative count of insts written-back
system.cpu.iew.wb_fanout                     0.627951                       # average fanout of values written-back
system.cpu.iew.wb_producers                  23815786                       # num instructions producing a value
system.cpu.iew.wb_rate                       2.153094                       # insts written-back per cycle
system.cpu.iew.wb_sent                       45381324                       # cumulative count of insts sent to commit
system.cpu.int_regfile_reads                 46382718                       # number of integer regfile reads
system.cpu.int_regfile_writes                21039111                       # number of integer regfile writes
system.cpu.ipc                               1.988585                       # IPC: Instructions Per Cycle
system.cpu.ipc_total                         1.988585                       # IPC: Total IPC of All Threads
system.cpu.iq.FU_type_0::No_OpClass              1081      0.00%      0.00% # Type of FU issued
system.cpu.iq.FU_type_0::IntAlu              31452066     68.91%     68.91% # Type of FU issued
system.cpu.iq.FU_type_0::IntMult                19488      0.04%     68.95% # Type of FU issued
system.cpu.iq.FU_type_0::IntDiv                     0      0.00%     68.95% # Type of FU issued
system.cpu.iq.FU_type_0::FloatAdd                   0      0.00%     68.95% # Type of FU issued
system.cpu.iq.FU_type_0::FloatCmp                   0      0.00%     68.95% # Type of FU issued
system.cpu.iq.FU_type_0::FloatCvt                   0      0.00%     68.95% # Type of FU issued
system.cpu.iq.FU_type_0::FloatMult                  0      0.00%     68.95% # Type of FU issued
system.cpu.iq.FU_type_0::FloatMultAcc               0      0.00%     68.95% # Type of FU issued
system.cpu.iq.FU_type_0::FloatDiv                   0      0.00%     68.95% # Type of FU issued
system.cpu.iq.FU_type_0::FloatMisc                  0      0.00%     68.95% # Type of FU issued
system.cpu.iq.FU_type_0::FloatSqrt                  0      0.00%     68.95% # Type of FU issued
system.cpu.iq.FU_type_0::SimdAdd                    0      0.00%     68.95% # Type of FU issued
system.cpu.iq.FU_type_0::SimdAddAcc                 0      0.00%     68.95% # Type of FU issued
system.cpu.iq.FU_type_0::SimdAlu                    0      0.00%     68.95% # Type of FU issued
system.cpu.iq.FU_type_0::SimdCmp                    0      0.00%     68.95% # Type of FU issued
system.cpu.iq.FU_type_0::SimdCvt                    0      0.00%     68.95% # Type of FU issued
system.cpu.iq.FU_type_0::SimdMisc                   0      0.00%     68.95% # Type of FU issued
system.cpu.iq.FU_type_0::SimdMult                   0      0.00%     68.95% # Type of FU issued
system.cpu.iq.FU_type_0::SimdMultAcc                0      0.00%     68.95% # Type of FU issued
system.cpu.iq.FU_type_0::SimdShift                  0      0.00%     68.95% # Type of FU issued
system.cpu.iq.FU_type_0::SimdShiftAcc               0      0.00%     68.95% # Type of FU issued
system.cpu.iq.FU_type_0::SimdDiv                    0      0.00%     68.95% # Type of FU issued
system.cpu.iq.FU_type_0::SimdSqrt                   0      0.00%     68.95% # Type of FU issued
system.cpu.iq.FU_type_0::SimdFloatAdd               0      0.00%     68.95% # Type of FU issued
system.cpu.iq.FU_type_0::SimdFloatAlu               0      0.00%     68.95% # Type of FU issued
system.cpu.iq.FU_type_0::SimdFloatCmp               0      0.00%     68.95% # Type of FU issued
system.cpu.iq.FU_type_0::SimdFloatCvt               0      0.00%     68.95% # Type of FU issued
system.cpu.iq.FU_type_0::SimdFloatDiv               0      0.00%     68.95% # Type of FU issued
system.cpu.iq.FU_type_0::SimdFloatMisc              0      0.00%     68.95% # Type of FU issued
system.cpu.iq.FU_type_0::SimdFloatMult              0      0.00%     68.95% # Type of FU issued
system.cpu.iq.FU_type_0::SimdFloatMultAcc            0      0.00%     68.95% # Type of FU issued
system.cpu.iq.FU_type_0::SimdFloatSqrt              0      0.00%     68.95% # Type of FU issued
system.cpu.iq.FU_type_0::SimdReduceAdd              0      0.00%     68.95% # Type of FU issued
system.cpu.iq.FU_type_0::SimdReduceAlu              0      0.00%     68.95% # Type of FU issued
system.cpu.iq.FU_type_0::SimdReduceCmp              0      0.00%     68.95% # Type of FU issued
system.cpu.iq.FU_type_0::SimdFloatReduceAdd            0      0.00%     68.95% # Type of FU issued
system.cpu.iq.FU_type_0::SimdFloatReduceCmp            0      0.00%     68.95% # Type of FU issued
system.cpu.iq.FU_type_0::SimdAes                    0      0.00%     68.95% # Type of FU issued
system.cpu.iq.FU_type_0::SimdAesMix                 0      0.00%     68.95% # Type of FU issued
system.cpu.iq.FU_type_0::SimdSha1Hash               0      0.00%     68.95% # Type of FU issued
system.cpu.iq.FU_type_0::SimdSha1Hash2              0      0.00%     68.95% # Type of FU issued
system.cpu.iq.FU_type_0::SimdSha256Hash             0      0.00%     68.95% # Type of FU issued
system.cpu.iq.FU_type_0::SimdSha256Hash2            0      0.00%     68.95% # Type of FU issued
system.cpu.iq.FU_type_0::SimdShaSigma2              0      0.00%     68.95% # Type of FU issued
system.cpu.iq.FU_type_0::SimdShaSigma3              0      0.00%     68.95% # Type of FU issued
system.cpu.iq.FU_type_0::SimdPredAlu                0      0.00%     68.95% # Type of FU issued
system.cpu.iq.FU_type_0::MemRead              9259258     20.29%     89.24% # Type of FU issued
system.cpu.iq.FU_type_0::MemWrite             4912771     10.76%    100.00% # Type of FU issued
system.cpu.iq.FU_type_0::FloatMemRead               0      0.00%    100.00% # Type of FU issued
system.cpu.iq.FU_type_0::FloatMemWrite              0      0.00%    100.00% # Type of FU issued
system.cpu.iq.FU_type_0::IprAccess                  0      0.00%    100.00% # Type of FU issued
system.cpu.iq.FU_type_0::InstPrefetch               0      0.00%    100.00% # Type of FU issued
system.cpu.iq.FU_type_0::total               45644664                       # Type of FU issued
system.cpu.iq.fp_alu_accesses                       0                       # Number of floating point alu accesses
system.cpu.iq.fp_inst_queue_reads                   0                       # Number of floating instruction queue reads
system.cpu.iq.fp_inst_queue_wakeup_accesses            0                       # Number of floating instruction queue wakeup accesses
system.cpu.iq.fp_inst_queue_writes                  0                       # Number of floating instruction queue writes
system.cpu.iq.fu_busy_cnt                      187536                       # FU busy when requested
system.cpu.iq.fu_busy_rate                   0.004109                       # FU busy rate (busy events/executed inst)
system.cpu.iq.fu_full::No_OpClass                   0      0.00%      0.00% # attempts to use FU when none available
system.cpu.iq.fu_full::IntAlu                    7955      4.24%      4.24% # attempts to use FU when none available
system.cpu.iq.fu_full::IntMult                      0      0.00%      4.24% # attempts to use FU when none available
system.cpu.iq.fu_full::IntDiv                       0      0.00%      4.24% # attempts to use FU when none available
system.cpu.iq.fu_full::FloatAdd                     0      0.00%      4.24% # attempts to use FU when none available
system.cpu.iq.fu_full::FloatCmp                     0      0.00%      4.24% # attempts to use FU when none available
system.cpu.iq.fu_full::FloatCvt                     0      0.00%      4.24% # attempts to use FU when none available
system.cpu.iq.fu_full::FloatMult                    0      0.00%      4.24% # attempts to use FU when none available
system.cpu.iq.fu_full::FloatMultAcc                 0      0.00%      4.24% # attempts to use FU when none available
system.cpu.iq.fu_full::FloatDiv                     0      0.00%      4.24% # attempts to use FU when none available
system.cpu.iq.fu_full::FloatMisc                    0      0.00%      4.24% # attempts to use FU when none available
system.cpu.iq.fu_full::FloatSqrt                    0      0.00%      4.24% # attempts to use FU when none available
system.cpu.iq.fu_full::SimdAdd                      0      0.00%      4.24% # attempts to use FU when none available
system.cpu.iq.fu_full::SimdAddAcc                   0      0.00%      4.24% # attempts to use FU when none available
system.cpu.iq.fu_full::SimdAlu                      0      0.00%      4.24% # attempts to use FU when none available
system.cpu.iq.fu_full::SimdCmp                      0      0.00%      4.24% # attempts to use FU when none available
system.cpu.iq.fu_full::SimdCvt                      0      0.00%      4.24% # attempts to use FU when none available
system.cpu.iq.fu_full::SimdMisc                     0      0.00%      4.24% # attempts to use FU when none available
system.cpu.iq.fu_full::SimdMult                     0      0.00%      4.24% # attempts to use FU when none available
system.cpu.iq.fu_full::SimdMultAcc                  0      0.00%      4.24% # attempts to use FU when none available
system.cpu.iq.fu_full::SimdShift                    0      0.00%      4.24% # attempts to use FU when none available
system.cpu.iq.fu_full::SimdShiftAcc                 0      0.00%      4.24% # attempts to use FU when none available
system.cpu.iq.fu_full::SimdDiv                      0      0.00%      4.24% # attempts to use FU when none available
system.cpu.iq.fu_full::SimdSqrt                     0      0.00%      4.24% # attempts to use FU when none available
system.cpu.iq.fu_full::SimdFloatAdd                 0      0.00%      4.24% # attempts to use FU when none available
system.cpu.iq.fu_full::SimdFloatAlu                 0      0.00%      4.24% # attempts to use FU when none available
system.cpu.iq.fu_full::SimdFloatCmp                 0      0.00%      4.24% # attempts to use FU when none available
system.cpu.iq.fu_full::SimdFloatCvt                 0      0.00%      4.24% # attempts to use FU when none available
system.cpu.iq.fu_full::SimdFloatDiv                 0      0.00%      4.24% # attempts to use FU when none available
system.cpu.iq.fu_full::SimdFloatMisc                0      0.00%      4.24% # attempts to use FU when none available
system.cpu.iq.fu_full::SimdFloatMult                0      0.00%      4.24% # attempts to use FU when none available
system.cpu.iq.fu_full::SimdFloatMultAcc             0      0.00%      4.24% # attempts to use FU when none available
system.cpu.iq.fu_full::SimdFloatSqrt                0      0.00%      4.24% # attempts to use FU when none available
system.cpu.iq.fu_full::SimdReduceAdd                0      0.00%      4.24% # attempts to use FU when none available
system.cpu.iq.fu_full::SimdReduceAlu                0      0.00%      4.24% # attempts to use FU when none available
system.cpu.iq.fu_full::SimdReduceCmp                0      0.00%      4.24% # attempts to use FU when none available
system.cpu.iq.fu_full::SimdFloatReduceAdd            0      0.00%      4.24% # attempts to use FU when none available
system.cpu.iq.fu_full::SimdFloatReduceCmp            0      0.00%      4.24% # attempts to use FU when none available
system.cpu.iq.fu_full::SimdAes                      0      0.00%      4.24% # attempts to use FU when none available
system.cpu.iq.fu_full::SimdAesMix                   0      0.00%      4.24% # attempts to use FU when none available
system.cpu.iq.fu_full::SimdSha1Hash                 0      0.00%      4.24% # attempts to use FU when none available
system.cpu.iq.fu_full::SimdSha1Hash2                0      0.00%      4.24% # attempts to use FU when none available
system.cpu.iq.fu_full::SimdSha256Hash               0      0.00%      4.24% # attempts to use FU when none available
system.cpu.iq.fu_full::SimdSha256Hash2              0      0.00%      4.24% # attempts to use FU when none available
system.cpu.iq.fu_full::SimdShaSigma2                0      0.00%      4.24% # attempts to use FU when none available
system.cpu.iq.fu_full::SimdShaSigma3                0      0.00%      4.24% # attempts to use FU when none available
system.cpu.iq.fu_full::SimdPredAlu                  0      0.00%      4.24% # attempts to use FU when none available
system.cpu.iq.fu_full::MemRead                 114115     60.85%     65.09% # attempts to use FU when none available
system.cpu.iq.fu_full::MemWrite                 65466     34.91%    100.00% # attempts to use FU when none available
system.cpu.iq.fu_full::FloatMemRead                 0      0.00%    100.00% # attempts to use FU when none available
system.cpu.iq.fu_full::FloatMemWrite                0      0.00%    100.00% # attempts to use FU when none available
system.cpu.iq.fu_full::IprAccess                    0      0.00%    100.00% # attempts to use FU when none available
system.cpu.iq.fu_full::InstPrefetch                 0      0.00%    100.00% # attempts to use FU when none available
system.cpu.iq.int_alu_accesses               45831119                       # Number of integer alu accesses
system.cpu.iq.int_inst_queue_reads          112471470                       # Number of integer instruction queue reads
system.cpu.iq.int_inst_queue_wakeup_accesses     45302794                       # Number of integer instruction queue wakeup accesses
system.cpu.iq.int_inst_queue_writes          48612152                       # Number of integer instruction queue writes
system.cpu.iq.iqInstsAdded                   46451979                       # Number of instructions added to the IQ (excludes non-spec)
system.cpu.iq.iqInstsIssued                  45644664                       # Number of instructions issued
system.cpu.iq.iqNonSpecInstsAdded               42762                       # Number of non-speculative instructions added to the IQ
system.cpu.iq.iqSquashedInstsExamined         2116742                       # Number of squashed instructions iterated over during squash; mainly for profiling
system.cpu.iq.iqSquashedInstsIssued              2598                       # Number of squashed instructions issued
system.cpu.iq.iqSquashedNonSpecRemoved            603                       # Number of squashed non-spec instructions that were removed
system.cpu.iq.iqSquashedOperandsExamined      5047492                       # Number of squashed operands that are examined and possibly removed from graph
system.cpu.iq.issued_per_cycle::samples      20992008                       # Number of insts issued each cycle
system.cpu.iq.issued_per_cycle::mean         2.174383                       # Number of insts issued each cycle
system.cpu.iq.issued_per_cycle::stdev        2.241501                       # Number of insts issued each cycle
system.cpu.iq.issued_per_cycle::underflows            0      0.00%      0.00% # Number of insts issued each cycle
system.cpu.iq.issued_per_cycle::0             6944448     33.08%     33.08% # Number of insts issued each cycle
system.cpu.iq.issued_per_cycle::1             3989682     19.01%     52.09% # Number of insts issued each cycle
system.cpu.iq.issued_per_cycle::2             1534458      7.31%     59.40% # Number of insts issued each cycle
system.cpu.iq.issued_per_cycle::3             3362815     16.02%     75.42% # Number of insts issued each cycle
system.cpu.iq.issued_per_cycle::4              738903      3.52%     78.94% # Number of insts issued each cycle
system.cpu.iq.issued_per_cycle::5             2420271     11.53%     90.47% # Number of insts issued each cycle
system.cpu.iq.issued_per_cycle::6             1233955      5.88%     96.34% # Number of insts issued each cycle
system.cpu.iq.issued_per_cycle::7              102884      0.49%     96.83% # Number of insts issued each cycle
system.cpu.iq.issued_per_cycle::8              664592      3.17%    100.00% # Number of insts issued each cycle
system.cpu.iq.issued_per_cycle::overflows            0      0.00%    100.00% # Number of insts issued each cycle
system.cpu.iq.issued_per_cycle::min_value            0                       # Number of insts issued each cycle
system.cpu.iq.issued_per_cycle::max_value            8                       # Number of insts issued each cycle
system.cpu.iq.issued_per_cycle::total        20992008                       # Number of insts issued each cycle
system.cpu.iq.rate                           2.169342                       # Inst issue rate
system.cpu.iq.vec_alu_accesses                      0                       # Number of vector alu accesses
system.cpu.iq.vec_inst_queue_reads                  0                       # Number of vector instruction queue reads
system.cpu.iq.vec_inst_queue_wakeup_accesses            0                       # Number of vector instruction queue wakeup accesses
system.cpu.iq.vec_inst_queue_writes                 0                       # Number of vector instruction queue writes
system.cpu.memDep0.conflictingLoads           1758606                       # Number of conflicting loads.
system.cpu.memDep0.conflictingStores          1356240                       # Number of conflicting stores.
system.cpu.memDep0.insertedLoads              9420559                       # Number of loads inserted to the mem dependence unit.
system.cpu.memDep0.insertedStores             5024043                       # Number of stores inserted to the mem dependence unit.
system.cpu.misc_regfile_reads               108168355                       # number of misc regfile reads
system.cpu.misc_regfile_writes                  83841                       # number of misc regfile writes
system.cpu.numCycles                         21040783                       # number of cpu cycles simulated
system.cpu.numWorkItemsCompleted                    0                       # number of work items this cpu completed
system.cpu.numWorkItemsStarted                      0                       # number of work items this cpu started
system.cpu.timesIdled                             466                       # Number of times that the entire CPU went into an idle state and unscheduled itself
system.cpu.vec_regfile_reads                       16                       # number of vector regfile reads
system.cpu.workload.numSyscalls                   239                       # Number of system calls
system.membus.snoop_filter.hit_multi_requests            0                       # Number of requests hitting in the snoop filter with multiple (>1) holders of the requested data.
system.membus.snoop_filter.hit_multi_snoops            0                       # Number of snoops hitting in the snoop filter with multiple (>1) holders of the requested data.
system.membus.snoop_filter.hit_single_requests            0                       # Number of requests hitting in the snoop filter with a single holder of the requested data.
system.membus.snoop_filter.hit_single_snoops            0                       # Number of snoops hitting in the snoop filter with a single holder of the requested data.
system.membus.snoop_filter.tot_requests          1820                       # Total number of requests made to the snoop filter.
system.membus.snoop_filter.tot_snoops               0                       # Total number of snoops made to the snoop filter.
system.tol2bus.snoop_filter.hit_multi_requests          121                       # Number of requests hitting in the snoop filter with multiple (>1) holders of the requested data.
system.tol2bus.snoop_filter.hit_multi_snoops            0                       # Number of snoops hitting in the snoop filter with multiple (>1) holders of the requested data.
system.tol2bus.snoop_filter.hit_single_requests        22909                       # Number of requests hitting in the snoop filter with a single holder of the requested data.
system.tol2bus.snoop_filter.hit_single_snoops            0                       # Number of snoops hitting in the snoop filter with a single holder of the requested data.
system.tol2bus.snoop_filter.tot_requests        47110                       # Total number of requests made to the snoop filter.
system.tol2bus.snoop_filter.tot_snoops              0                       # Total number of snoops made to the snoop filter.
system.clk_domain.clock                          1000                       # Clock period in ticks
system.cpu.branchPred.lookups                10924997                       # Number of BP lookups
system.cpu.branchPred.condPredicted           9997928                       # Number of conditional branches predicted
system.cpu.branchPred.condIncorrect            129017                       # Number of conditional branches incorrect
system.cpu.branchPred.BTBLookups              6018108                       # Number of BTB lookups
system.cpu.branchPred.BTBHits                 5974130                       # Number of BTB hits
system.cpu.branchPred.BTBHitPct             99.269239                       # BTB Hit Percentage
system.cpu.branchPred.RASUsed                  268055                       # Number of times the RAS was used to get a target.
system.cpu.branchPred.RASIncorrect              31972                       # Number of incorrect RAS predictions.
system.cpu.branchPred.indirectLookups          203428                       # Number of indirect predictor lookups.
system.cpu.branchPred.indirectHits             181969                       # Number of indirect target hits.
system.cpu.branchPred.indirectMisses            21459                       # Number of indirect misses.
system.cpu.branchPred.indirectMispredicted          357                       # Number of mispredicted indirect branches.
system.cpu.commit.commitSquashedInsts         2116614                       # The number of squashed insts skipped by commit
system.cpu.commit.commitNonSpecStalls           42159                       # The number of times commit has been forced to stall to communicate backwards
system.cpu.commit.branchMispredicts            129081                       # The number of times a branch was mispredicted
system.cpu.commit.numCommittedDist::samples     20672579                       # Number of insts commited each cycle
system.cpu.commit.numCommittedDist::mean     2.146708                       # Number of insts commited each cycle
system.cpu.commit.numCommittedDist::stdev     2.395240                       # Number of insts commited each cycle
system.cpu.commit.numCommittedDist::underflows            0      0.00%      0.00% # Number of insts commited each cycle
system.cpu.commit.numCommittedDist::0         4444032     21.50%     21.50% # Number of insts commited each cycle
system.cpu.commit.numCommittedDist::1         6595519     31.90%     53.40% # Number of insts commited each cycle
system.cpu.commit.numCommittedDist::2         5172096     25.02%     78.42% # Number of insts commited each cycle
system.cpu.commit.numCommittedDist::3          311548      1.51%     79.93% # Number of insts commited each cycle
system.cpu.commit.numCommittedDist::4         1459521      7.06%     86.99% # Number of insts commited each cycle
system.cpu.commit.numCommittedDist::5          107580      0.52%     87.51% # Number of insts commited each cycle
system.cpu.commit.numCommittedDist::6          216055      1.05%     88.55% # Number of insts commited each cycle
system.cpu.commit.numCommittedDist::7           98495      0.48%     89.03% # Number of insts commited each cycle
system.cpu.commit.numCommittedDist::8         2267733     10.97%    100.00% # Number of insts commited each cycle
system.cpu.commit.numCommittedDist::overflows            0      0.00%    100.00% # Number of insts commited each cycle
system.cpu.commit.numCommittedDist::min_value            0                       # Number of insts commited each cycle
system.cpu.commit.numCommittedDist::max_value            8                       # Number of insts commited each cycle
system.cpu.commit.numCommittedDist::total     20672579                       # Number of insts commited each cycle
system.cpu.commit.instsCommitted             41841385                       # Number of instructions committed
system.cpu.commit.opsCommitted               44377998                       # Number of ops (including micro ops) committed
system.cpu.commit.memRefs                    13698011                       # Number of memory references committed
system.cpu.commit.loads                       8917926                       # Number of loads committed
system.cpu.commit.amos                              0                       # Number of atomic instructions committed
system.cpu.commit.membars                       20960                       # Number of memory barriers committed
system.cpu.commit.branches                   10103130                       # Number of branches committed
system.cpu.commit.vector                            0                       # Number of committed Vector instructions.
system.cpu.commit.floating                          0                       # Number of committed floating point instructions.
system.cpu.commit.integer                    34848669                       # Number of committed integer instructions.
system.cpu.commit.functionCalls                209370                       # Number of function calls committed.
system.cpu.commit.committedInstType_0::No_OpClass            0      0.00%      0.00% # Class of committed instruction
system.cpu.commit.committedInstType_0::IntAlu     30660519     69.09%     69.09% # Class of committed instruction
system.cpu.commit.committedInstType_0::IntMult        19468      0.04%     69.13% # Class of committed instruction
system.cpu.commit.committedInstType_0::IntDiv            0      0.00%     69.13% # Class of committed instruction
system.cpu.commit.committedInstType_0::FloatAdd            0      0.00%     69.13% # Class of committed instruction
system.cpu.commit.committedInstType_0::FloatCmp            0      0.00%     69.13% # Class of committed instruction
system.cpu.commit.committedInstType_0::FloatCvt            0      0.00%     69.13% # Class of committed instruction
system.cpu.commit.committedInstType_0::FloatMult            0      0.00%     69.13% # Class of committed instruction
system.cpu.commit.committedInstType_0::FloatMultAcc            0      0.00%     69.13% # Class of committed instruction
system.cpu.commit.committedInstType_0::FloatDiv            0      0.00%     69.13% # Class of committed instruction
system.cpu.commit.committedInstType_0::FloatMisc            0      0.00%     69.13% # Class of committed instruction
system.cpu.commit.committedInstType_0::FloatSqrt            0      0.00%     69.13% # Class of committed instruction
system.cpu.commit.committedInstType_0::SimdAdd            0      0.00%     69.13% # Class of committed instruction
system.cpu.commit.committedInstType_0::SimdAddAcc            0      0.00%     69.13% # Class of committed instruction
system.cpu.commit.committedInstType_0::SimdAlu            0      0.00%     69.13% # Class of committed instruction
system.cpu.commit.committedInstType_0::SimdCmp            0      0.00%     69.13% # Class of committed instruction
system.cpu.commit.committedInstType_0::SimdCvt            0      0.00%     69.13% # Class of committed instruction
system.cpu.commit.committedInstType_0::SimdMisc            0      0.00%     69.13% # Class of committed instruction
system.cpu.commit.committedInstType_0::SimdMult            0      0.00%     69.13% # Class of committed instruction
system.cpu.commit.committedInstType_0::SimdMultAcc            0      0.00%     69.13% # Class of committed instruction
system.cpu.commit.committedInstType_0::SimdShift            0      0.00%     69.13% # Class of committed instruction
system.cpu.commit.committedInstType_0::SimdShiftAcc            0      0.00%     69.13% # Class of committed instruction
system.cpu.commit.committedInstType_0::SimdDiv            0      0.00%     69.13% # Class of committed instruction
system.cpu.commit.committedInstType_0::SimdSqrt            0      0.00%     69.13% # Class of committed instruction
system.cpu.commit.committedInstType_0::SimdFloatAdd            0      0.00%     69.13% # Class of committed instruction
system.cpu.commit.committedInstType_0::SimdFloatAlu            0      0.00%     69.13% # Class of committed instruction
system.cpu.commit.committedInstType_0::SimdFloatCmp            0      0.00%     69.13% # Class of committed instruction
system.cpu.commit.committedInstType_0::SimdFloatCvt            0      0.00%     69.13% # Class of committed instruction
system.cpu.commit.committedInstType_0::SimdFloatDiv            0      0.00%     69.13% # Class of committed instruction
system.cpu.commit.committedInstType_0::SimdFloatMisc            0      0.00%     69.13% # Class of committed instruction
system.cpu.commit.committedInstType_0::SimdFloatMult            0      0.00%     69.13% # Class of committed instruction
system.cpu.commit.committedInstType_0::SimdFloatMultAcc            0      0.00%     69.13% # Class of committed instruction
system.cpu.commit.committedInstType_0::SimdFloatSqrt            0      0.00%     69.13% # Class of committed instruction
system.cpu.commit.committedInstType_0::SimdReduceAdd            0      0.00%     69.13% # Class of committed instruction
system.cpu.commit.committedInstType_0::SimdReduceAlu            0      0.00%     69.13% # Class of committed instruction
system.cpu.commit.committedInstType_0::SimdReduceCmp            0      0.00%     69.13% # Class of committed instruction
system.cpu.commit.committedInstType_0::SimdFloatReduceAdd            0      0.00%     69.13% # Class of committed instruction
system.cpu.commit.committedInstType_0::SimdFloatReduceCmp            0      0.00%     69.13% # Class of committed instruction
system.cpu.commit.committedInstType_0::SimdAes            0      0.00%     69.13% # Class of committed instruction
system.cpu.commit.committedInstType_0::SimdAesMix            0      0.00%     69.13% # Class of committed instruction
system.cpu.commit.committedInstType_0::SimdSha1Hash            0      0.00%     69.13% # Class of committed instruction
system.cpu.commit.committedInstType_0::SimdSha1Hash2            0      0.00%     69.13% # Class of committed instruction
system.cpu.commit.committedInstType_0::SimdSha256Hash            0      0.00%     69.13% # Class of committed instruction
system.cpu.commit.committedInstType_0::SimdSha256Hash2            0      0.00%     69.13% # Class of committed instruction
system.cpu.commit.committedInstType_0::SimdShaSigma2            0      0.00%     69.13% # Class of committed instruction
system.cpu.commit.committedInstType_0::SimdShaSigma3            0      0.00%     69.13% # Class of committed instruction
system.cpu.commit.committedInstType_0::SimdPredAlu            0      0.00%     69.13% # Class of committed instruction
system.cpu.commit.committedInstType_0::MemRead      8917926     20.10%     89.23% # Class of committed instruction
system.cpu.commit.committedInstType_0::MemWrite      4780085     10.77%    100.00% # Class of committed instruction
system.cpu.commit.committedInstType_0::FloatMemRead            0      0.00%    100.00% # Class of committed instruction
system.cpu.commit.committedInstType_0::FloatMemWrite            0      0.00%    100.00% # Class of committed instruction
system.cpu.commit.committedInstType_0::IprAccess            0      0.00%    100.00% # Class of committed instruction
system.cpu.commit.committedInstType_0::InstPrefetch            0      0.00%    100.00% # Class of committed instruction
system.cpu.commit.committedInstType_0::total     44377998                       # Class of committed instruction
system.cpu.commit.commitEligibleSamples       2267733                       # number cycles where commit BW limit reached
system.cpu.dcache.demand_hits::.cpu.data     13678189                       # number of demand (read+write) hits
system.cpu.dcache.demand_hits::total         13678189                       # number of demand (read+write) hits
system.cpu.dcache.overall_hits::.cpu.data     13678189                       # number of overall hits
system.cpu.dcache.overall_hits::total        13678189                       # number of overall hits
system.cpu.dcache.demand_misses::.cpu.data        80833                       # number of demand (read+write) misses
system.cpu.dcache.demand_misses::total          80833                       # number of demand (read+write) misses
system.cpu.dcache.overall_misses::.cpu.data        80833                       # number of overall misses
system.cpu.dcache.overall_misses::total         80833                       # number of overall misses
system.cpu.dcache.demand_miss_latency::.cpu.data    930568993                       # number of demand (read+write) miss cycles
system.cpu.dcache.demand_miss_latency::total    930568993                       # number of demand (read+write) miss cycles
system.cpu.dcache.overall_miss_latency::.cpu.data    930568993                       # number of overall miss cycles
system.cpu.dcache.overall_miss_latency::total    930568993                       # number of overall miss cycles
system.cpu.dcache.demand_accesses::.cpu.data     13759022                       # number of demand (read+write) accesses
system.cpu.dcache.demand_accesses::total     13759022                       # number of demand (read+write) accesses
system.cpu.dcache.overall_accesses::.cpu.data     13759022                       # number of overall (read+write) accesses
system.cpu.dcache.overall_accesses::total     13759022                       # number of overall (read+write) accesses
system.cpu.dcache.demand_miss_rate::.cpu.data     0.005875                       # miss rate for demand accesses
system.cpu.dcache.demand_miss_rate::total     0.005875                       # miss rate for demand accesses
system.cpu.dcache.overall_miss_rate::.cpu.data     0.005875                       # miss rate for overall accesses
system.cpu.dcache.overall_miss_rate::total     0.005875                       # miss rate for overall accesses
system.cpu.dcache.demand_avg_miss_latency::.cpu.data 11512.241201                       # average overall miss latency
system.cpu.dcache.demand_avg_miss_latency::total 11512.241201                       # average overall miss latency
system.cpu.dcache.overall_avg_miss_latency::.cpu.data 11512.241201                       # average overall miss latency
system.cpu.dcache.overall_avg_miss_latency::total 11512.241201                       # average overall miss latency
system.cpu.dcache.blocked_cycles::no_mshrs         1118                       # number of cycles access was blocked
system.cpu.dcache.blocked_cycles::no_targets            0                       # number of cycles access was blocked
system.cpu.dcache.blocked::no_mshrs                18                       # number of cycles access was blocked
system.cpu.dcache.blocked::no_targets               0                       # number of cycles access was blocked
system.cpu.dcache.avg_blocked_cycles::no_mshrs    62.111111                       # average number of cycles each access was blocked
system.cpu.dcache.avg_blocked_cycles::no_targets          nan                       # average number of cycles each access was blocked
system.cpu.dcache.writebacks::.writebacks        19261                       # number of writebacks
system.cpu.dcache.writebacks::total             19261                       # number of writebacks
system.cpu.dcache.demand_mshr_hits::.cpu.data        57508                       # number of demand (read+write) MSHR hits
system.cpu.dcache.demand_mshr_hits::total        57508                       # number of demand (read+write) MSHR hits
system.cpu.dcache.overall_mshr_hits::.cpu.data        57508                       # number of overall MSHR hits
system.cpu.dcache.overall_mshr_hits::total        57508                       # number of overall MSHR hits
system.cpu.dcache.demand_mshr_misses::.cpu.data        23325                       # number of demand (read+write) MSHR misses
system.cpu.dcache.demand_mshr_misses::total        23325                       # number of demand (read+write) MSHR misses
system.cpu.dcache.overall_mshr_misses::.cpu.data        23325                       # number of overall MSHR misses
system.cpu.dcache.overall_mshr_misses::total        23325                       # number of overall MSHR misses
system.cpu.dcache.demand_mshr_miss_latency::.cpu.data    360697999                       # number of demand (read+write) MSHR miss cycles
system.cpu.dcache.demand_mshr_miss_latency::total    360697999                       # number of demand (read+write) MSHR miss cycles
system.cpu.dcache.overall_mshr_miss_latency::.cpu.data    360697999                       # number of overall MSHR miss cycles
system.cpu.dcache.overall_mshr_miss_latency::total    360697999                       # number of overall MSHR miss cycles
system.cpu.dcache.demand_mshr_miss_rate::.cpu.data     0.001695                       # mshr miss rate for demand accesses
system.cpu.dcache.demand_mshr_miss_rate::total     0.001695                       # mshr miss rate for demand accesses
system.cpu.dcache.overall_mshr_miss_rate::.cpu.data     0.001695                       # mshr miss rate for overall accesses
system.cpu.dcache.overall_mshr_miss_rate::total     0.001695                       # mshr miss rate for overall accesses
system.cpu.dcache.demand_avg_mshr_miss_latency::.cpu.data 15464.008532                       # average overall mshr miss latency
system.cpu.dcache.demand_avg_mshr_miss_latency::total 15464.008532                       # average overall mshr miss latency
system.cpu.dcache.overall_avg_mshr_miss_latency::.cpu.data 15464.008532                       # average overall mshr miss latency
system.cpu.dcache.overall_avg_mshr_miss_latency::total 15464.008532                       # average overall mshr miss latency
system.cpu.dcache.replacements                  22444                       # number of replacements
system.cpu.dcache.ReadReq_hits::.cpu.data      8958663                       # number of ReadReq hits
system.cpu.dcache.ReadReq_hits::total         8958663                       # number of ReadReq hits
system.cpu.dcache.ReadReq_misses::.cpu.data        78173                       # number of ReadReq misses
system.cpu.dcache.ReadReq_misses::total         78173                       # number of ReadReq misses
system.cpu.dcache.ReadReq_miss_latency::.cpu.data    792497000                       # number of ReadReq miss cycles
system.cpu.dcache.ReadReq_miss_latency::total    792497000                       # number of ReadReq miss cycles
system.cpu.dcache.ReadReq_accesses::.cpu.data      9036836                       # number of ReadReq accesses(hits+misses)
system.cpu.dcache.ReadReq_accesses::total      9036836                       # number of ReadReq accesses(hits+misses)
system.cpu.dcache.ReadReq_miss_rate::.cpu.data     0.008650                       # miss rate for ReadReq accesses
system.cpu.dcache.ReadReq_miss_rate::total     0.008650                       # miss rate for ReadReq accesses
system.cpu.dcache.ReadReq_avg_miss_latency::.cpu.data 10137.732977                       # average ReadReq miss latency
system.cpu.dcache.ReadReq_avg_miss_latency::total 10137.732977                       # average ReadReq miss latency
system.cpu.dcache.ReadReq_mshr_hits::.cpu.data        55987                       # number of ReadReq MSHR hits
system.cpu.dcache.ReadReq_mshr_hits::total        55987                       # number of ReadReq MSHR hits
system.cpu.dcache.ReadReq_mshr_misses::.cpu.data        22186                       # number of ReadReq MSHR misses
system.cpu.dcache.ReadReq_mshr_misses::total        22186                       # number of ReadReq MSHR misses
system.cpu.dcache.ReadReq_mshr_miss_latency::.cpu.data    289298000                       # number of ReadReq MSHR miss cycles
system.cpu.dcache.ReadReq_mshr_miss_latency::total    289298000                       # number of ReadReq MSHR miss cycles
system.cpu.dcache.ReadReq_mshr_miss_rate::.cpu.data     0.002455                       # mshr miss rate for ReadReq accesses
system.cpu.dcache.ReadReq_mshr_miss_rate::total     0.002455                       # mshr miss rate for ReadReq accesses
system.cpu.dcache.ReadReq_avg_mshr_miss_latency::.cpu.data 13039.664653                       # average ReadReq mshr miss latency
system.cpu.dcache.ReadReq_avg_mshr_miss_latency::total 13039.664653                       # average ReadReq mshr miss latency
system.cpu.dcache.WriteReq_hits::.cpu.data      4719526                       # number of WriteReq hits
system.cpu.dcache.WriteReq_hits::total        4719526                       # number of WriteReq hits
system.cpu.dcache.WriteReq_misses::.cpu.data         2660                       # number of WriteReq misses
system.cpu.dcache.WriteReq_misses::total         2660                       # number of WriteReq misses
system.cpu.dcache.WriteReq_miss_latency::.cpu.data    138071993                       # number of WriteReq miss cycles
system.cpu.dcache.WriteReq_miss_latency::total    138071993                       # number of WriteReq miss cycles
system.cpu.dcache.WriteReq_accesses::.cpu.data      4722186                       # number of WriteReq accesses(hits+misses)
system.cpu.dcache.WriteReq_accesses::total      4722186                       # number of WriteReq accesses(hits+misses)
system.cpu.dcache.WriteReq_miss_rate::.cpu.data     0.000563                       # miss rate for WriteReq accesses
system.cpu.dcache.WriteReq_miss_rate::total     0.000563                       # miss rate for WriteReq accesses
system.cpu.dcache.WriteReq_avg_miss_latency::.cpu.data 51906.764286                       # average WriteReq miss latency
system.cpu.dcache.WriteReq_avg_miss_latency::total 51906.764286                       # average WriteReq miss latency
system.cpu.dcache.WriteReq_mshr_hits::.cpu.data         1521                       # number of WriteReq MSHR hits
system.cpu.dcache.WriteReq_mshr_hits::total         1521                       # number of WriteReq MSHR hits
system.cpu.dcache.WriteReq_mshr_misses::.cpu.data         1139                       # number of WriteReq MSHR misses
system.cpu.dcache.WriteReq_mshr_misses::total         1139                       # number of WriteReq MSHR misses
system.cpu.dcache.WriteReq_mshr_miss_latency::.cpu.data     71399999                       # number of WriteReq MSHR miss cycles
system.cpu.dcache.WriteReq_mshr_miss_latency::total     71399999                       # number of WriteReq MSHR miss cycles
system.cpu.dcache.WriteReq_mshr_miss_rate::.cpu.data     0.000241                       # mshr miss rate for WriteReq accesses
system.cpu.dcache.WriteReq_mshr_miss_rate::total     0.000241                       # mshr miss rate for WriteReq accesses
system.cpu.dcache.WriteReq_avg_mshr_miss_latency::.cpu.data 62686.566286                       # average WriteReq mshr miss latency
system.cpu.dcache.WriteReq_avg_mshr_miss_latency::total 62686.566286                       # average WriteReq mshr miss latency
system.cpu.dcache.LoadLockedReq_hits::.cpu.data        21123                       # number of LoadLockedReq hits
system.cpu.dcache.LoadLockedReq_hits::total        21123                       # number of LoadLockedReq hits
system.cpu.dcache.LoadLockedReq_misses::.cpu.data            3                       # number of LoadLockedReq misses
system.cpu.dcache.LoadLockedReq_misses::total            3                       # number of LoadLockedReq misses
system.cpu.dcache.LoadLockedReq_miss_latency::.cpu.data        93500                       # number of LoadLockedReq miss cycles
system.cpu.dcache.LoadLockedReq_miss_latency::total        93500                       # number of LoadLockedReq miss cycles
system.cpu.dcache.LoadLockedReq_accesses::.cpu.data        21126                       # number of LoadLockedReq accesses(hits+misses)
system.cpu.dcache.LoadLockedReq_accesses::total        21126                       # number of LoadLockedReq accesses(hits+misses)
system.cpu.dcache.LoadLockedReq_miss_rate::.cpu.data     0.000142                       # miss rate for LoadLockedReq accesses
system.cpu.dcache.LoadLockedReq_miss_rate::total     0.000142                       # miss rate for LoadLockedReq accesses
system.cpu.dcache.LoadLockedReq_avg_miss_latency::.cpu.data 31166.666667                       # average LoadLockedReq miss latency
system.cpu.dcache.LoadLockedReq_avg_miss_latency::total 31166.666667                       # average LoadLockedReq miss latency
system.cpu.dcache.LoadLockedReq_mshr_hits::.cpu.data            3                       # number of LoadLockedReq MSHR hits
system.cpu.dcache.LoadLockedReq_mshr_hits::total            3                       # number of LoadLockedReq MSHR hits
system.cpu.dcache.StoreCondReq_hits::.cpu.data        20960                       # number of StoreCondReq hits
system.cpu.dcache.StoreCondReq_hits::total        20960                       # number of StoreCondReq hits
system.cpu.dcache.StoreCondReq_accesses::.cpu.data        20960                       # number of StoreCondReq accesses(hits+misses)
system.cpu.dcache.StoreCondReq_accesses::total        20960                       # number of StoreCondReq accesses(hits+misses)
system.cpu.dcache.power_state.pwrStateResidencyTicks::UNDEFINED  10520391000                       # Cumulative time (in ticks) in various power states
system.cpu.dcache.tags.tagsinuse           823.771947                       # Cycle average of tags in use
system.cpu.dcache.tags.total_refs            13743596                       # Total number of references to valid blocks.
system.cpu.dcache.tags.sampled_refs             23324                       # Sample count of references to valid blocks.
system.cpu.dcache.tags.avg_refs            589.246956                       # Average number of references to valid blocks.
system.cpu.dcache.tags.warmup_cycle            176500                       # Cycle when the warmup percentage was hit.
system.cpu.dcache.tags.occ_blocks::.cpu.data   823.771947                       # Average occupied blocks per requestor
system.cpu.dcache.tags.occ_percent::.cpu.data     0.804465                       # Average percentage of cache occupancy
system.cpu.dcache.tags.occ_percent::total     0.804465                       # Average percentage of cache occupancy
system.cpu.dcache.tags.occ_task_id_blocks::1024          880                       # Occupied blocks per task id
system.cpu.dcache.tags.age_task_id_blocks_1024::0           33                       # Occupied blocks per task id
system.cpu.dcache.tags.age_task_id_blocks_1024::1           67                       # Occupied blocks per task id
system.cpu.dcache.tags.age_task_id_blocks_1024::2           72                       # Occupied blocks per task id
system.cpu.dcache.tags.age_task_id_blocks_1024::3          556                       # Occupied blocks per task id
system.cpu.dcache.tags.age_task_id_blocks_1024::4          152                       # Occupied blocks per task id
system.cpu.dcache.tags.occ_task_id_percent::1024     0.859375                       # Percentage of cache occupancy per task id
system.cpu.dcache.tags.tag_accesses          27625540                       # Number of tag accesses
system.cpu.dcache.tags.data_accesses         27625540                       # Number of data accesses
system.cpu.dcache.tags.power_state.pwrStateResidencyTicks::UNDEFINED  10520391000                       # Cumulative time (in ticks) in various power states
system.cpu.decode.idleCycles                  8909531                       # Number of cycles decode is idle
system.cpu.decode.blockedCycles                859369                       # Number of cycles decode is blocked
system.cpu.decode.runCycles                  10989884                       # Number of cycles decode is running
system.cpu.decode.unblockCycles                103344                       # Number of cycles decode is unblocking
system.cpu.decode.squashCycles                 129880                       # Number of cycles decode is squashing
system.cpu.decode.branchResolved              5908732                       # Number of times decode resolved a  branch
system.cpu.decode.branchMispred                   496                       # Number of times decode detected a branch misprediction
system.cpu.decode.decodedInsts               47849386                       # Number of instructions handled by decode
system.cpu.decode.squashedInsts                  1882                       # Number of squashed instructions handled by decode
system.cpu.dtb.instHits                             0                       # ITB inst hits
system.cpu.dtb.instMisses                           0                       # ITB inst misses
system.cpu.dtb.readHits                             0                       # DTB read hits
system.cpu.dtb.readMisses                           0                       # DTB read misses
system.cpu.dtb.writeHits                            0                       # DTB write hits
system.cpu.dtb.writeMisses                          0                       # DTB write misses
system.cpu.dtb.inserts                              0                       # Number of times an entry is inserted into the TLB
system.cpu.dtb.flushTlb                             0                       # Number of times complete TLB was flushed
system.cpu.dtb.flushTlbMva                          0                       # Number of times TLB was flushed by MVA
system.cpu.dtb.flushTlbMvaAsid                      0                       # Number of times TLB was flushed by MVA & ASID
system.cpu.dtb.flushTlbAsid                         0                       # Number of times TLB was flushed by ASID
system.cpu.dtb.flushedEntries                       0                       # Number of entries that have been flushed from TLB
system.cpu.dtb.alignFaults                          0                       # Number of TLB faults due to alignment restrictions
system.cpu.dtb.prefetchFaults                       0                       # Number of TLB faults due to prefetch
system.cpu.dtb.domainFaults                         0                       # Number of TLB faults due to domain restrictions
system.cpu.dtb.permsFaults                          0                       # Number of TLB faults due to permissions restrictions
system.cpu.dtb.readAccesses                         0                       # DTB read accesses
system.cpu.dtb.writeAccesses                        0                       # DTB write accesses
system.cpu.dtb.instAccesses                         0                       # ITB inst accesses
system.cpu.dtb.hits                                 0                       # Total TLB (inst and data) hits
system.cpu.dtb.misses                               0                       # Total TLB (inst and data) misses
system.cpu.dtb.accesses                             0                       # Total TLB (inst and data) accesses
system.cpu.dtb.stage2_mmu.stage2_tlb.instHits            0                       # ITB inst hits
system.cpu.dtb.stage2_mmu.stage2_tlb.instMisses            0                       # ITB inst misses
system.cpu.dtb.stage2_mmu.stage2_tlb.readHits            0                       # DTB read hits
system.cpu.dtb.stage2_mmu.stage2_tlb.readMisses            0                       # DTB read misses
system.cpu.dtb.stage2_mmu.stage2_tlb.writeHits            0                       # DTB write hits
system.cpu.dtb.stage2_mmu.stage2_tlb.writeMisses            0                       # DTB write misses
system.cpu.dtb.stage2_mmu.stage2_tlb.inserts            0                       # Number of times an entry is inserted into the TLB
system.cpu.dtb.stage2_mmu.stage2_tlb.flushTlb            0                       # Number of times complete TLB was flushed
system.cpu.dtb.stage2_mmu.stage2_tlb.flushTlbMva            0                       # Number of times TLB was flushed by MVA
system.cpu.dtb.stage2_mmu.stage2_tlb.flushTlbMvaAsid            0                       # Number of times TLB was flushed by MVA & ASID
system.cpu.dtb.stage2_mmu.stage2_tlb.flushTlbAsid            0                       # Number of times TLB was flushed by ASID
system.cpu.dtb.stage2_mmu.stage2_tlb.flushedEntries            0                       # Number of entries that have been flushed from TLB
system.cpu.dtb.stage2_mmu.stage2_tlb.alignFaults            0                       # Number of TLB faults due to alignment restrictions
system.cpu.dtb.stage2_mmu.stage2_tlb.prefetchFaults            0                       # Number of TLB faults due to prefetch
system.cpu.dtb.stage2_mmu.stage2_tlb.domainFaults            0                       # Number of TLB faults due to domain restrictions
system.cpu.dtb.stage2_mmu.stage2_tlb.permsFaults            0                       # Number of TLB faults due to permissions restrictions
system.cpu.dtb.stage2_mmu.stage2_tlb.readAccesses            0                       # DTB read accesses
system.cpu.dtb.stage2_mmu.stage2_tlb.writeAccesses            0                       # DTB write accesses
system.cpu.dtb.stage2_mmu.stage2_tlb.instAccesses            0                       # ITB inst accesses
system.cpu.dtb.stage2_mmu.stage2_tlb.hits            0                       # Total TLB (inst and data) hits
system.cpu.dtb.stage2_mmu.stage2_tlb.misses            0                       # Total TLB (inst and data) misses
system.cpu.dtb.stage2_mmu.stage2_tlb.accesses            0                       # Total TLB (inst and data) accesses
system.cpu.dtb.stage2_mmu.stage2_tlb.walker.walks            0                       # Table walker walks requested
system.cpu.dtb.stage2_mmu.stage2_tlb.walker.requestOrigin_Requested::Data            0                       # Table walker requests started/completed, data/inst
system.cpu.dtb.stage2_mmu.stage2_tlb.walker.requestOrigin_Requested::Inst            0                       # Table walker requests started/completed, data/inst
system.cpu.dtb.stage2_mmu.stage2_tlb.walker.requestOrigin_Requested::total            0                       # Table walker requests started/completed, data/inst
system.cpu.dtb.stage2_mmu.stage2_tlb.walker.requestOrigin_Completed::Data            0                       # Table walker requests started/completed, data/inst
system.cpu.dtb.stage2_mmu.stage2_tlb.walker.requestOrigin_Completed::Inst            0                       # Table walker requests started/completed, data/inst
system.cpu.dtb.stage2_mmu.stage2_tlb.walker.requestOrigin_Completed::total            0                       # Table walker requests started/completed, data/inst
system.cpu.dtb.stage2_mmu.stage2_tlb.walker.requestOrigin::total            0                       # Table walker requests started/completed, data/inst
system.cpu.dtb.stage2_mmu.stage2_tlb.walker.power_state.pwrStateResidencyTicks::UNDEFINED  10520391000                       # Cumulative time (in ticks) in various power states
system.cpu.dtb.walker.walks                         0                       # Table walker walks requested
system.cpu.dtb.walker.requestOrigin_Requested::Data            0                       # Table walker requests started/completed, data/inst
system.cpu.dtb.walker.requestOrigin_Requested::Inst            0                       # Table walker requests started/completed, data/inst
system.cpu.dtb.walker.requestOrigin_Requested::total            0                       # Table walker requests started/completed, data/inst
system.cpu.dtb.walker.requestOrigin_Completed::Data            0                       # Table walker requests started/completed, data/inst
system.cpu.dtb.walker.requestOrigin_Completed::Inst            0                       # Table walker requests started/completed, data/inst
system.cpu.dtb.walker.requestOrigin_Completed::total            0                       # Table walker requests started/completed, data/inst
system.cpu.dtb.walker.requestOrigin::total            0                       # Table walker requests started/completed, data/inst
system.cpu.dtb.walker.power_state.pwrStateResidencyTicks::UNDEFINED  10520391000                       # Cumulative time (in ticks) in various power states
system.cpu.fetch.icacheStallCycles            9068053                       # Number of cycles fetch is stalled on an Icache miss
system.cpu.fetch.insts                       45848924                       # Number of instructions fetch has processed
system.cpu.fetch.branches                    10924997                       # Number of branches that fetch encountered
system.cpu.fetch.predictedBranches            6424154                       # Number of branches that fetch has predicted taken
system.cpu.fetch.cycles                      11786896                       # Number of cycles fetch has run and was not squashing or blocked
system.cpu.fetch.squashCycles                  260680                       # Number of cycles fetch has spent squashing
system.cpu.fetch.miscStallCycles                  526                       # Number of cycles fetch has spent waiting on interrupts,or bad addresses, or out of MSHRs
system.cpu.fetch.pendingTrapStallCycles          6123                       # Number of stall cycles due to pending traps
system.cpu.fetch.icacheWaitRetryStallCycles           70                       # Number of stall cycles due to full MSHR
system.cpu.fetch.cacheLines                   9003326                       # Number of cache lines fetched
system.cpu.fetch.icacheSquashes                 69846                       # Number of outstanding Icache misses that were squashed
system.cpu.fetch.nisnDist::samples           20992008                       # Number of instructions fetched each cycle (Total)
system.cpu.fetch.nisnDist::mean              2.329392                       # Number of instructions fetched each cycle (Total)
system.cpu.fetch.nisnDist::stdev             2.808161                       # Number of instructions fetched each cycle (Total)
system.cpu.fetch.nisnDist::underflows               0      0.00%      0.00% # Number of instructions fetched each cycle (Total)
system.cpu.fetch.nisnDist::0                  9623959     45.85%     45.85% # Number of instructions fetched each cycle (Total)
system.cpu.fetch.nisnDist::1                  2229829     10.62%     56.47% # Number of instructions fetched each cycle (Total)
system.cpu.fetch.nisnDist::2                   455037      2.17%     58.64% # Number of instructions fetched each cycle (Total)
system.cpu.fetch.nisnDist::3                  2129213     10.14%     68.78% # Number of instructions fetched each cycle (Total)
system.cpu.fetch.nisnDist::4                  1806948      8.61%     77.39% # Number of instructions fetched each cycle (Total)
system.cpu.fetch.nisnDist::5                  1761644      8.39%     85.78% # Number of instructions fetched each cycle (Total)
system.cpu.fetch.nisnDist::6                   216090      1.03%     86.81% # Number of instructions fetched each cycle (Total)
system.cpu.fetch.nisnDist::7                   115779      0.55%     87.36% # Number of instructions fetched each cycle (Total)
system.cpu.fetch.nisnDist::8                  2653509     12.64%    100.00% # Number of instructions fetched each cycle (Total)
system.cpu.fetch.nisnDist::overflows                0      0.00%    100.00% # Number of instructions fetched each cycle (Total)
system.cpu.fetch.nisnDist::min_value                0                       # Number of instructions fetched each cycle (Total)
system.cpu.fetch.nisnDist::max_value                8                       # Number of instructions fetched each cycle (Total)
system.cpu.fetch.nisnDist::total             20992008                       # Number of instructions fetched each cycle (Total)
system.cpu.fetch.branchRate                  0.519230                       # Number of branch fetches per cycle
system.cpu.fetch.rate                        2.179050                       # Number of inst fetches per cycle
system.cpu.icache.demand_hits::.cpu.inst      9002148                       # number of demand (read+write) hits
system.cpu.icache.demand_hits::total          9002148                       # number of demand (read+write) hits
system.cpu.icache.overall_hits::.cpu.inst      9002148                       # number of overall hits
system.cpu.icache.overall_hits::total         9002148                       # number of overall hits
system.cpu.icache.demand_misses::.cpu.inst         1178                       # number of demand (read+write) misses
system.cpu.icache.demand_misses::total           1178                       # number of demand (read+write) misses
system.cpu.icache.overall_misses::.cpu.inst         1178                       # number of overall misses
system.cpu.icache.overall_misses::total          1178                       # number of overall misses
system.cpu.icache.demand_miss_latency::.cpu.inst     73366500                       # number of demand (read+write) miss cycles
system.cpu.icache.demand_miss_latency::total     73366500                       # number of demand (read+write) miss cycles
system.cpu.icache.overall_miss_latency::.cpu.inst     73366500                       # number of overall miss cycles
system.cpu.icache.overall_miss_latency::total     73366500                       # number of overall miss cycles
system.cpu.icache.demand_accesses::.cpu.inst      9003326                       # number of demand (read+write) accesses
system.cpu.icache.demand_accesses::total      9003326                       # number of demand (read+write) accesses
system.cpu.icache.overall_accesses::.cpu.inst      9003326                       # number of overall (read+write) accesses
system.cpu.icache.overall_accesses::total      9003326                       # number of overall (read+write) accesses
system.cpu.icache.demand_miss_rate::.cpu.inst     0.000131                       # miss rate for demand accesses
system.cpu.icache.demand_miss_rate::total     0.000131                       # miss rate for demand accesses
system.cpu.icache.overall_miss_rate::.cpu.inst     0.000131                       # miss rate for overall accesses
system.cpu.icache.overall_miss_rate::total     0.000131                       # miss rate for overall accesses
system.cpu.icache.demand_avg_miss_latency::.cpu.inst 62280.560272                       # average overall miss latency
system.cpu.icache.demand_avg_miss_latency::total 62280.560272                       # average overall miss latency
system.cpu.icache.overall_avg_miss_latency::.cpu.inst 62280.560272                       # average overall miss latency
system.cpu.icache.overall_avg_miss_latency::total 62280.560272                       # average overall miss latency
system.cpu.icache.blocked_cycles::no_mshrs          550                       # number of cycles access was blocked
system.cpu.icache.blocked_cycles::no_targets            0                       # number of cycles access was blocked
system.cpu.icache.blocked::no_mshrs                11                       # number of cycles access was blocked
system.cpu.icache.blocked::no_targets               0                       # number of cycles access was blocked
system.cpu.icache.avg_blocked_cycles::no_mshrs           50                       # average number of cycles each access was blocked
system.cpu.icache.avg_blocked_cycles::no_targets          nan                       # average number of cycles each access was blocked
system.cpu.icache.writebacks::.writebacks          441                       # number of writebacks
system.cpu.icache.writebacks::total               441                       # number of writebacks
system.cpu.icache.demand_mshr_hits::.cpu.inst          278                       # number of demand (read+write) MSHR hits
system.cpu.icache.demand_mshr_hits::total          278                       # number of demand (read+write) MSHR hits
system.cpu.icache.overall_mshr_hits::.cpu.inst          278                       # number of overall MSHR hits
system.cpu.icache.overall_mshr_hits::total          278                       # number of overall MSHR hits
system.cpu.icache.demand_mshr_misses::.cpu.inst          900                       # number of demand (read+write) MSHR misses
system.cpu.icache.demand_mshr_misses::total          900                       # number of demand (read+write) MSHR misses
system.cpu.icache.overall_mshr_misses::.cpu.inst          900                       # number of overall MSHR misses
system.cpu.icache.overall_mshr_misses::total          900                       # number of overall MSHR misses
system.cpu.icache.demand_mshr_miss_latency::.cpu.inst     57548000                       # number of demand (read+write) MSHR miss cycles
system.cpu.icache.demand_mshr_miss_latency::total     57548000                       # number of demand (read+write) MSHR miss cycles
system.cpu.icache.overall_mshr_miss_latency::.cpu.inst     57548000                       # number of overall MSHR miss cycles
system.cpu.icache.overall_mshr_miss_latency::total     57548000                       # number of overall MSHR miss cycles
system.cpu.icache.demand_mshr_miss_rate::.cpu.inst     0.000100                       # mshr miss rate for demand accesses
system.cpu.icache.demand_mshr_miss_rate::total     0.000100                       # mshr miss rate for demand accesses
system.cpu.icache.overall_mshr_miss_rate::.cpu.inst     0.000100                       # mshr miss rate for overall accesses
system.cpu.icache.overall_mshr_miss_rate::total     0.000100                       # mshr miss rate for overall accesses
system.cpu.icache.demand_avg_mshr_miss_latency::.cpu.inst 63942.222222                       # average overall mshr miss latency
system.cpu.icache.demand_avg_mshr_miss_latency::total 63942.222222                       # average overall mshr miss latency
system.cpu.icache.overall_avg_mshr_miss_latency::.cpu.inst 63942.222222                       # average overall mshr miss latency
system.cpu.icache.overall_avg_mshr_miss_latency::total 63942.222222                       # average overall mshr miss latency
system.cpu.icache.replacements                    441                       # number of replacements
system.cpu.icache.ReadReq_hits::.cpu.inst      9002148                       # number of ReadReq hits
system.cpu.icache.ReadReq_hits::total         9002148                       # number of ReadReq hits
system.cpu.icache.ReadReq_misses::.cpu.inst         1178                       # number of ReadReq misses
system.cpu.icache.ReadReq_misses::total          1178                       # number of ReadReq misses
system.cpu.icache.ReadReq_miss_latency::.cpu.inst     73366500                       # number of ReadReq miss cycles
system.cpu.icache.ReadReq_miss_latency::total     73366500                       # number of ReadReq miss cycles
system.cpu.icache.ReadReq_accesses::.cpu.inst      9003326                       # number of ReadReq accesses(hits+misses)
system.cpu.icache.ReadReq_accesses::total      9003326                       # number of ReadReq accesses(hits+misses)
system.cpu.icache.ReadReq_miss_rate::.cpu.inst     0.000131                       # miss rate for ReadReq accesses
system.cpu.icache.ReadReq_miss_rate::total     0.000131                       # miss rate for ReadReq accesses
system.cpu.icache.ReadReq_avg_miss_latency::.cpu.inst 62280.560272                       # average ReadReq miss latency
system.cpu.icache.ReadReq_avg_miss_latency::total 62280.560272                       # average ReadReq miss latency
system.cpu.icache.ReadReq_mshr_hits::.cpu.inst          278                       # number of ReadReq MSHR hits
system.cpu.icache.ReadReq_mshr_hits::total          278                       # number of ReadReq MSHR hits
system.cpu.icache.ReadReq_mshr_misses::.cpu.inst          900                       # number of ReadReq MSHR misses
system.cpu.icache.ReadReq_mshr_misses::total          900                       # number of ReadReq MSHR misses
system.cpu.icache.ReadReq_mshr_miss_latency::.cpu.inst     57548000                       # number of ReadReq MSHR miss cycles
system.cpu.icache.ReadReq_mshr_miss_latency::total     57548000                       # number of ReadReq MSHR miss cycles
system.cpu.icache.ReadReq_mshr_miss_rate::.cpu.inst     0.000100                       # mshr miss rate for ReadReq accesses
system.cpu.icache.ReadReq_mshr_miss_rate::total     0.000100                       # mshr miss rate for ReadReq accesses
system.cpu.icache.ReadReq_avg_mshr_miss_latency::.cpu.inst 63942.222222                       # average ReadReq mshr miss latency
system.cpu.icache.ReadReq_avg_mshr_miss_latency::total 63942.222222                       # average ReadReq mshr miss latency
system.cpu.icache.power_state.pwrStateResidencyTicks::UNDEFINED  10520391000                       # Cumulative time (in ticks) in various power states
system.cpu.icache.tags.tagsinuse           431.972540                       # Cycle average of tags in use
system.cpu.icache.tags.total_refs             9003048                       # Total number of references to valid blocks.
system.cpu.icache.tags.sampled_refs               900                       # Sample count of references to valid blocks.
system.cpu.icache.tags.avg_refs          10003.386667                       # Average number of references to valid blocks.
system.cpu.icache.tags.warmup_cycle             87500                       # Cycle when the warmup percentage was hit.
system.cpu.icache.tags.occ_blocks::.cpu.inst   431.972540                       # Average occupied blocks per requestor
system.cpu.icache.tags.occ_percent::.cpu.inst     0.843696                       # Average percentage of cache occupancy
system.cpu.icache.tags.occ_percent::total     0.843696                       # Average percentage of cache occupancy
system.cpu.icache.tags.occ_task_id_blocks::1024          459                       # Occupied blocks per task id
system.cpu.icache.tags.age_task_id_blocks_1024::0           64                       # Occupied blocks per task id
system.cpu.icache.tags.age_task_id_blocks_1024::2            1                       # Occupied blocks per task id
system.cpu.icache.tags.age_task_id_blocks_1024::3          170                       # Occupied blocks per task id
system.cpu.icache.tags.age_task_id_blocks_1024::4          224                       # Occupied blocks per task id
system.cpu.icache.tags.occ_task_id_percent::1024     0.896484                       # Percentage of cache occupancy per task id
system.cpu.icache.tags.tag_accesses          18007552                       # Number of tag accesses
system.cpu.icache.tags.data_accesses         18007552                       # Number of data accesses
system.cpu.icache.tags.power_state.pwrStateResidencyTicks::UNDEFINED  10520391000                       # Cumulative time (in ticks) in various power states
system.cpu.itb.instHits                             0                       # ITB inst hits
system.cpu.itb.instMisses                           0                       # ITB inst misses
system.cpu.itb.readHits                             0                       # DTB read hits
system.cpu.itb.readMisses                           0                       # DTB read misses
system.cpu.itb.writeHits                            0                       # DTB write hits
system.cpu.itb.writeMisses                          0                       # DTB write misses
system.cpu.itb.inserts                              0                       # Number of times an entry is inserted into the TLB
system.cpu.itb.flushTlb                             0                       # Number of times complete TLB was flushed
system.cpu.itb.flushTlbMva                          0                       # Number of times TLB was flushed by MVA
system.cpu.itb.flushTlbMvaAsid                      0                       # Number of times TLB was flushed by MVA & ASID
system.cpu.itb.flushTlbAsid                         0                       # Number of times TLB was flushed by ASID
system.cpu.itb.flushedEntries                       0                       # Number of entries that have been flushed from TLB
system.cpu.itb.alignFaults                          0                       # Number of TLB faults due to alignment restrictions
system.cpu.itb.prefetchFaults                       0                       # Number of TLB faults due to prefetch
system.cpu.itb.domainFaults                         0                       # Number of TLB faults due to domain restrictions
system.cpu.itb.permsFaults                          0                       # Number of TLB faults due to permissions restrictions
system.cpu.itb.readAccesses                         0                       # DTB read accesses
system.cpu.itb.writeAccesses                        0                       # DTB write accesses
system.cpu.itb.instAccesses                         0                       # ITB inst accesses
system.cpu.itb.hits                                 0                       # Total TLB (inst and data) hits
system.cpu.itb.misses                               0                       # Total TLB (inst and data) misses
system.cpu.itb.accesses                             0                       # Total TLB (inst and data) accesses
system.cpu.itb.stage2_mmu.stage2_tlb.instHits            0                       # ITB inst hits
system.cpu.itb.stage2_mmu.stage2_tlb.instMisses            0                       # ITB inst misses
system.cpu.itb.stage2_mmu.stage2_tlb.readHits            0                       # DTB read hits
system.cpu.itb.stage2_mmu.stage2_tlb.readMisses            0                       # DTB read misses
system.cpu.itb.stage2_mmu.stage2_tlb.writeHits            0                       # DTB write hits
system.cpu.itb.stage2_mmu.stage2_tlb.writeMisses            0                       # DTB write misses
system.cpu.itb.stage2_mmu.stage2_tlb.inserts            0                       # Number of times an entry is inserted into the TLB
system.cpu.itb.stage2_mmu.stage2_tlb.flushTlb            0                       # Number of times complete TLB was flushed
system.cpu.itb.stage2_mmu.stage2_tlb.flushTlbMva            0                       # Number of times TLB was flushed by MVA
system.cpu.itb.stage2_mmu.stage2_tlb.flushTlbMvaAsid            0                       # Number of times TLB was flushed by MVA & ASID
[...]
system.mem_ctrls.dram.bw_read::.cpu.data      6935103                       # Total read bandwidth from this memory (bytes/s)
system.mem_ctrls.dram.bw_read::total         11071832                       # Total read bandwidth from this memory (bytes/s)
system.mem_ctrls.dram.bw_inst_read::.cpu.inst      4136728                       # Instruction read bandwidth from this memory (bytes/s)
system.mem_ctrls.dram.bw_inst_read::total      4136728                       # Instruction read bandwidth from this memory (bytes/s)
system.mem_ctrls.dram.bw_total::.cpu.inst      4136728                       # Total bandwidth to/from this memory (bytes/s)
system.mem_ctrls.dram.bw_total::.cpu.data      6935103                       # Total bandwidth to/from this memory (bytes/s)
system.mem_ctrls.dram.bw_total::total        11071832                       # Total bandwidth to/from this memory (bytes/s)
system.mem_ctrls.dram.readBursts                 1820                       # Number of DRAM read bursts
system.mem_ctrls.dram.writeBursts                   0                       # Number of DRAM write bursts
system.mem_ctrls.dram.perBankRdBursts::0          250                       # Per bank write bursts
system.mem_ctrls.dram.perBankRdBursts::1          167                       # Per bank write bursts
system.mem_ctrls.dram.perBankRdBursts::2           67                       # Per bank write bursts
system.mem_ctrls.dram.perBankRdBursts::3           84                       # Per bank write bursts
system.mem_ctrls.dram.perBankRdBursts::4          113                       # Per bank write bursts
system.mem_ctrls.dram.perBankRdBursts::5          136                       # Per bank write bursts
system.mem_ctrls.dram.perBankRdBursts::6          124                       # Per bank write bursts
system.mem_ctrls.dram.perBankRdBursts::7           20                       # Per bank write bursts
system.mem_ctrls.dram.perBankRdBursts::8           63                       # Per bank write bursts
system.mem_ctrls.dram.perBankRdBursts::9           84                       # Per bank write bursts
system.mem_ctrls.dram.perBankRdBursts::10           34                       # Per bank write bursts
system.mem_ctrls.dram.perBankRdBursts::11           39                       # Per bank write bursts
system.mem_ctrls.dram.perBankRdBursts::12          125                       # Per bank write bursts
system.mem_ctrls.dram.perBankRdBursts::13          195                       # Per bank write bursts
system.mem_ctrls.dram.perBankRdBursts::14          159                       # Per bank write bursts
system.mem_ctrls.dram.perBankRdBursts::15          160                       # Per bank write bursts
system.mem_ctrls.dram.perBankWrBursts::0            0                       # Per bank write bursts
system.mem_ctrls.dram.perBankWrBursts::1            0                       # Per bank write bursts
system.mem_ctrls.dram.perBankWrBursts::2            0                       # Per bank write bursts
system.mem_ctrls.dram.perBankWrBursts::3            0                       # Per bank write bursts
system.mem_ctrls.dram.perBankWrBursts::4            0                       # Per bank write bursts
system.mem_ctrls.dram.perBankWrBursts::5            0                       # Per bank write bursts
system.mem_ctrls.dram.perBankWrBursts::6            0                       # Per bank write bursts
system.mem_ctrls.dram.perBankWrBursts::7            0                       # Per bank write bursts
system.mem_ctrls.dram.perBankWrBursts::8            0                       # Per bank write bursts
system.mem_ctrls.dram.perBankWrBursts::9            0                       # Per bank write bursts
system.mem_ctrls.dram.perBankWrBursts::10            0                       # Per bank write bursts
system.mem_ctrls.dram.perBankWrBursts::11            0                       # Per bank write bursts
system.mem_ctrls.dram.perBankWrBursts::12            0                       # Per bank write bursts
system.mem_ctrls.dram.perBankWrBursts::13            0                       # Per bank write bursts
system.mem_ctrls.dram.perBankWrBursts::14            0                       # Per bank write bursts
system.mem_ctrls.dram.perBankWrBursts::15            0                       # Per bank write bursts
system.mem_ctrls.dram.totQLat                17934250                       # Total ticks spent queuing
system.mem_ctrls.dram.totBusLat               9100000                       # Total ticks spent in databus transfers
system.mem_ctrls.dram.totMemAccLat           52059250                       # Total ticks spent from burst creation until serviced by the DRAM
system.mem_ctrls.dram.avgQLat                 9853.98                       # Average queueing delay per DRAM burst
system.mem_ctrls.dram.avgBusLat               5000.00                       # Average bus latency per DRAM burst
system.mem_ctrls.dram.avgMemAccLat           28603.98                       # Average memory access latency per DRAM burst
system.mem_ctrls.dram.readRowHits                1233                       # Number of row buffer hits during reads
system.mem_ctrls.dram.writeRowHits                  0                       # Number of row buffer hits during writes
system.mem_ctrls.dram.readRowHitRate            67.75                       # Row buffer hit rate for reads
system.mem_ctrls.dram.writeRowHitRate             nan                       # Row buffer hit rate for writes
system.mem_ctrls.dram.bytesPerActivate::samples          581                       # Bytes accessed per row activation
system.mem_ctrls.dram.bytesPerActivate::mean   198.499139                       # Bytes accessed per row activation
system.mem_ctrls.dram.bytesPerActivate::gmean   152.006469                       # Bytes accessed per row activation
system.mem_ctrls.dram.bytesPerActivate::stdev   195.011031                       # Bytes accessed per row activation
system.mem_ctrls.dram.bytesPerActivate::0-127          120     20.65%     20.65% # Bytes accessed per row activation
system.mem_ctrls.dram.bytesPerActivate::128-255          366     62.99%     83.65% # Bytes accessed per row activation
system.mem_ctrls.dram.bytesPerActivate::256-383           35      6.02%     89.67% # Bytes accessed per row activation
system.mem_ctrls.dram.bytesPerActivate::384-511           16      2.75%     92.43% # Bytes accessed per row activation
system.mem_ctrls.dram.bytesPerActivate::512-639           13      2.24%     94.66% # Bytes accessed per row activation
system.mem_ctrls.dram.bytesPerActivate::640-767            4      0.69%     95.35% # Bytes accessed per row activation
system.mem_ctrls.dram.bytesPerActivate::768-895            8      1.38%     96.73% # Bytes accessed per row activation
system.mem_ctrls.dram.bytesPerActivate::896-1023            4      0.69%     97.42% # Bytes accessed per row activation
system.mem_ctrls.dram.bytesPerActivate::1024-1151           15      2.58%    100.00% # Bytes accessed per row activation
system.mem_ctrls.dram.bytesPerActivate::total          581                       # Bytes accessed per row activation
system.mem_ctrls.dram.bytesRead                116480                       # Total number of bytes read from DRAM
system.mem_ctrls.dram.bytesWritten                  0                       # Total number of bytes written to DRAM
system.mem_ctrls.dram.avgRdBW               11.071832                       # Average DRAM read bandwidth in MiBytes/s
system.mem_ctrls.dram.avgWrBW                       0                       # Average DRAM write bandwidth in MiBytes/s
system.mem_ctrls.dram.peakBW                 12800.00                       # Theoretical peak bandwidth in MiByte/s
system.mem_ctrls.dram.busUtil                    0.09                       # Data bus utilization in percentage
system.mem_ctrls.dram.busUtilRead                0.09                       # Data bus utilization in percentage for reads
system.mem_ctrls.dram.busUtilWrite               0.00                       # Data bus utilization in percentage for writes
system.mem_ctrls.dram.pageHitRate               67.75                       # Row buffer hit rate, read and write combined
system.mem_ctrls.dram.power_state.pwrStateResidencyTicks::UNDEFINED  10520391000                       # Cumulative time (in ticks) in various power states
system.mem_ctrls.dram.rank0.actEnergy         2370480                       # Energy for activate commands per rank (pJ)
system.mem_ctrls.dram.rank0.preEnergy         1256145                       # Energy for precharge commands per rank (pJ)
system.mem_ctrls.dram.rank0.readEnergy        6861540                       # Energy for read commands per rank (pJ)
system.mem_ctrls.dram.rank0.writeEnergy             0                       # Energy for write commands per rank (pJ)
system.mem_ctrls.dram.rank0.refreshEnergy 830378640.000000                       # Energy for refresh commands per rank (pJ)
system.mem_ctrls.dram.rank0.actBackEnergy    740843820                       # Energy for active background per rank (pJ)
system.mem_ctrls.dram.rank0.preBackEnergy   3415961760                       # Energy for precharge background per rank (pJ)
system.mem_ctrls.dram.rank0.actPowerDownEnergy            0                       # Energy for active power-down per rank (pJ)
system.mem_ctrls.dram.rank0.prePowerDownEnergy            0                       # Energy for precharge power-down per rank (pJ)
system.mem_ctrls.dram.rank0.selfRefreshEnergy            0                       # Energy for self refresh per rank (pJ)
system.mem_ctrls.dram.rank0.totalEnergy    4997672385                       # Total energy per rank (pJ)
system.mem_ctrls.dram.rank0.averagePower   475.046259                       # Core power per rank (mW)
system.mem_ctrls.dram.rank0.totalIdleTime            0                       # Total Idle time Per DRAM Rank
system.mem_ctrls.dram.rank0.pwrStateTime::IDLE   8873980750                       # Time in different power states
system.mem_ctrls.dram.rank0.pwrStateTime::REF    351260000                       # Time in different power states
system.mem_ctrls.dram.rank0.pwrStateTime::SREF            0                       # Time in different power states
system.mem_ctrls.dram.rank0.pwrStateTime::PRE_PDN            0                       # Time in different power states
system.mem_ctrls.dram.rank0.pwrStateTime::ACT   1295150250                       # Time in different power states
system.mem_ctrls.dram.rank0.pwrStateTime::ACT_PDN            0                       # Time in different power states
system.mem_ctrls.dram.rank1.actEnergy         1820700                       # Energy for activate commands per rank (pJ)
system.mem_ctrls.dram.rank1.preEnergy          948750                       # Energy for precharge commands per rank (pJ)
system.mem_ctrls.dram.rank1.readEnergy        6133260                       # Energy for read commands per rank (pJ)
system.mem_ctrls.dram.rank1.writeEnergy             0                       # Energy for write commands per rank (pJ)
system.mem_ctrls.dram.rank1.refreshEnergy 830378640.000000                       # Energy for refresh commands per rank (pJ)
system.mem_ctrls.dram.rank1.actBackEnergy    584267100                       # Energy for active background per rank (pJ)
system.mem_ctrls.dram.rank1.preBackEnergy   3547815840                       # Energy for precharge background per rank (pJ)
system.mem_ctrls.dram.rank1.actPowerDownEnergy            0                       # Energy for active power-down per rank (pJ)
system.mem_ctrls.dram.rank1.prePowerDownEnergy            0                       # Energy for precharge power-down per rank (pJ)
system.mem_ctrls.dram.rank1.selfRefreshEnergy            0                       # Energy for self refresh per rank (pJ)
system.mem_ctrls.dram.rank1.totalEnergy    4971364290                       # Total energy per rank (pJ)
system.mem_ctrls.dram.rank1.averagePower   472.545582                       # Core power per rank (mW)
system.mem_ctrls.dram.rank1.totalIdleTime            0                       # Total Idle time Per DRAM Rank
system.mem_ctrls.dram.rank1.pwrStateTime::IDLE   9218278000                       # Time in different power states
system.mem_ctrls.dram.rank1.pwrStateTime::REF    351260000                       # Time in different power states
system.mem_ctrls.dram.rank1.pwrStateTime::SREF            0                       # Time in different power states
system.mem_ctrls.dram.rank1.pwrStateTime::PRE_PDN            0                       # Time in different power states
system.mem_ctrls.dram.rank1.pwrStateTime::ACT    950853000                       # Time in different power states
system.mem_ctrls.dram.rank1.pwrStateTime::ACT_PDN            0                       # Time in different power states
system.mem_ctrls.power_state.pwrStateResidencyTicks::UNDEFINED  10520391000                       # Cumulative time (in ticks) in various power states
system.membus.trans_dist::ReadResp                982                       # Transaction distribution
system.membus.trans_dist::ReadExReq               837                       # Transaction distribution
system.membus.trans_dist::ReadExResp              837                       # Transaction distribution
system.membus.trans_dist::ReadSharedReq           983                       # Transaction distribution
system.membus.pkt_count_system.l2.mem_side_port::system.mem_ctrls.port         3639                       # Packet count per connected requestor and responder (bytes)
system.membus.pkt_count::total                   3639                       # Packet count per connected requestor and responder (bytes)
system.membus.pkt_size_system.l2.mem_side_port::system.mem_ctrls.port       116416                       # Cumulative packet size per connected requestor and responder (bytes)
system.membus.pkt_size::total                  116416                       # Cumulative packet size per connected requestor and responder (bytes)
system.membus.snoops                                0                       # Total snoops (count)
system.membus.snoopTraffic                          0                       # Total snoop traffic (bytes)
system.membus.snoop_fanout::samples              1820                       # Request fanout histogram
system.membus.snoop_fanout::mean                    0                       # Request fanout histogram
system.membus.snoop_fanout::stdev                   0                       # Request fanout histogram
system.membus.snoop_fanout::underflows              0      0.00%      0.00% # Request fanout histogram
system.membus.snoop_fanout::0                    1820    100.00%    100.00% # Request fanout histogram
system.membus.snoop_fanout::1                       0      0.00%    100.00% # Request fanout histogram
system.membus.snoop_fanout::overflows               0      0.00%    100.00% # Request fanout histogram
system.membus.snoop_fanout::min_value               0                       # Request fanout histogram
system.membus.snoop_fanout::max_value               0                       # Request fanout histogram
system.membus.snoop_fanout::total                1820                       # Request fanout histogram
system.membus.power_state.pwrStateResidencyTicks::UNDEFINED  10520391000                       # Cumulative time (in ticks) in various power states
system.membus.reqLayer0.occupancy             2274500                       # Layer occupancy (ticks)
system.membus.reqLayer0.utilization               0.0                       # Layer utilization (%)
system.membus.respLayer1.occupancy            9688250                       # Layer occupancy (ticks)
system.membus.respLayer1.utilization              0.1                       # Layer utilization (%)
system.tol2bus.trans_dist::ReadResp             23081                       # Transaction distribution
system.tol2bus.trans_dist::WritebackDirty        19261                       # Transaction distribution
system.tol2bus.trans_dist::WritebackClean          441                       # Transaction distribution
system.tol2bus.trans_dist::CleanEvict            3183                       # Transaction distribution
system.tol2bus.trans_dist::ReadExReq             1143                       # Transaction distribution
system.tol2bus.trans_dist::ReadExResp            1143                       # Transaction distribution
system.tol2bus.trans_dist::ReadCleanReq           900                       # Transaction distribution
system.tol2bus.trans_dist::ReadSharedReq        22182                       # Transaction distribution
system.tol2bus.pkt_count_system.cpu.icache.mem_side_port::system.l2.cpu_side_port         2241                       # Packet count per connected requestor and responder (bytes)
system.tol2bus.pkt_count_system.cpu.dcache.mem_side_port::system.l2.cpu_side_port        69093                       # Packet count per connected requestor and responder (bytes)
system.tol2bus.pkt_count::total                 71334                       # Packet count per connected requestor and responder (bytes)
system.tol2bus.pkt_size_system.cpu.icache.mem_side_port::system.l2.cpu_side_port        85824                       # Cumulative packet size per connected requestor and responder (bytes)
system.tol2bus.pkt_size_system.cpu.dcache.mem_side_port::system.l2.cpu_side_port      2725440                       # Cumulative packet size per connected requestor and responder (bytes)
system.tol2bus.pkt_size::total                2811264                       # Cumulative packet size per connected requestor and responder (bytes)
system.tol2bus.snoops                               0                       # Total snoops (count)
system.tol2bus.snoopTraffic                         0                       # Total snoop traffic (bytes)
system.tol2bus.snoop_fanout::samples            24225                       # Request fanout histogram
system.tol2bus.snoop_fanout::mean            0.005986                       # Request fanout histogram
system.tol2bus.snoop_fanout::stdev           0.077136                       # Request fanout histogram
system.tol2bus.snoop_fanout::underflows             0      0.00%      0.00% # Request fanout histogram
system.tol2bus.snoop_fanout::0                  24080     99.40%     99.40% # Request fanout histogram
system.tol2bus.snoop_fanout::1                    145      0.60%    100.00% # Request fanout histogram
system.tol2bus.snoop_fanout::2                      0      0.00%    100.00% # Request fanout histogram
system.tol2bus.snoop_fanout::overflows              0      0.00%    100.00% # Request fanout histogram
system.tol2bus.snoop_fanout::min_value              0                       # Request fanout histogram
system.tol2bus.snoop_fanout::max_value              1                       # Request fanout histogram
system.tol2bus.snoop_fanout::total              24225                       # Request fanout histogram
system.tol2bus.power_state.pwrStateResidencyTicks::UNDEFINED  10520391000                       # Cumulative time (in ticks) in various power states
system.tol2bus.reqLayer0.occupancy           43257000                       # Layer occupancy (ticks)
system.tol2bus.reqLayer0.utilization              0.4                       # Layer utilization (%)
system.tol2bus.respLayer0.occupancy           1350499                       # Layer occupancy (ticks)
system.tol2bus.respLayer0.utilization             0.0                       # Layer utilization (%)
system.tol2bus.respLayer1.occupancy          34991489                       # Layer occupancy (ticks)
system.tol2bus.respLayer1.utilization             0.3                       # Layer utilization (%)
system.voltage_domain.voltage                       1                       # Voltage in Volts

---------- End Simulation Statistics   ----------
