
---------- Begin Simulation Statistics ----------
final_tick                                 7477430000                       # Number of ticks from beginning of simulation (restored from checkpoints and never reset)
host_inst_rate                                 108935                       # Simulator instruction rate (inst/s)
host_mem_usage                                 664048                       # Number of bytes of host memory used
host_op_rate                                   137722                       # Simulator op (including micro ops) rate (op/s)
host_seconds                                   140.05                       # Real time elapsed on the host
host_tick_rate                               53392508                       # Simulator tick rate (ticks/s)
sim_freq                                 1000000000000                       # Frequency of simulated ticks
sim_insts                                    15255958                       # Number of instructions simulated
sim_ops                                      19287511                       # Number of ops (including micro ops) simulated
sim_seconds                                  0.007477                       # Number of seconds simulated
sim_ticks                                  7477430000                       # Number of ticks simulated
system.cpu.cc_regfile_reads                  84550141                       # number of cc regfile reads
system.cpu.cc_regfile_writes                 10624220                       # number of cc regfile writes
system.cpu.committedInsts                    15255958                       # Number of Instructions Simulated
system.cpu.committedOps                      19287511                       # Number of Ops (including micro ops) Simulated
system.cpu.cpi                               0.980264                       # CPI: Cycles Per Instruction
system.cpu.cpi_total                         0.980264                       # CPI: Total CPI of All Threads
system.cpu.idleCycles                           49274                       # Total number of cycles that the CPU has spent unscheduled due to idling
system.cpu.iew.branchMispredicts               397275                       # Number of branch mispredicts detected at execute
system.cpu.iew.exec_branches                  4496540                       # Number of branches executed
system.cpu.iew.exec_nop                             0                       # number of nop insts executed
system.cpu.iew.exec_rate                     1.567443                       # Inst execution rate
system.cpu.iew.exec_refs                      8207668                       # number of memory reference insts executed
system.cpu.iew.exec_stores                    2901278                       # Number of stores executed
system.cpu.iew.exec_swp                             0                       # number of swp insts executed
system.cpu.iew.iewBlockCycles                 1027946                       # Number of cycles IEW is blocking
system.cpu.iew.iewDispLoadInsts               5924820                       # Number of dispatched load instructions
system.cpu.iew.iewDispNonSpecInsts              62886                       # Number of dispatched non-speculative instructions
system.cpu.iew.iewDispSquashedInsts            174527                       # Number of squashed instructions skipped by dispatch
system.cpu.iew.iewDispStoreInsts              3136548                       # Number of dispatched store instructions
system.cpu.iew.iewDispatchedInsts            27057431                       # Number of instructions dispatched to IQ
system.cpu.iew.iewExecLoadInsts               5306390                       # Number of load instructions executed
system.cpu.iew.iewExecSquashedInsts            431762                       # Number of squashed instructions skipped in execute
system.cpu.iew.iewExecutedInsts              23440899                       # Number of executed instructions
system.cpu.iew.iewIQFullEvents                  48473                       # Number of times the IQ has become full, causing a stall
system.cpu.iew.iewIdleCycles                        0                       # Number of cycles IEW is idle
system.cpu.iew.iewLSQFullEvents               1236693                       # Number of times the LSQ has become full, causing a stall
system.cpu.iew.iewSquashCycles                 264624                       # Number of cycles IEW is squashing
system.cpu.iew.iewUnblockCycles               1297080                       # Number of cycles IEW is unblocking
system.cpu.iew.memOrderViolationEvents            350                       # Number of memory order violations
system.cpu.iew.predictedNotTakenIncorrect       179049                       # Number of branches that were predicted not taken incorrectly
system.cpu.iew.predictedTakenIncorrect         218226                       # Number of branches that were predicted taken incorrectly
system.cpu.iew.wb_consumers                  23235302                       # num instructions consuming a value
system.cpu.iew.wb_count                      22948213                       # cumulative count of insts written-back
system.cpu.iew.wb_fanout                     0.543290                       # average fanout of values written-back
system.cpu.iew.wb_producers                  12623516                       # num instructions producing a value
system.cpu.iew.wb_rate                       1.534499                       # insts written-back per cycle
system.cpu.iew.wb_sent                       23059756                       # cumulative count of insts sent to commit
system.cpu.int_regfile_reads                 24391459                       # number of integer regfile reads
system.cpu.int_regfile_writes                13807815                       # number of integer regfile writes
system.cpu.ipc                               1.020134                       # IPC: Instructions Per Cycle
system.cpu.ipc_total                         1.020134                       # IPC: Total IPC of All Threads
system.cpu.iq.FU_type_0::No_OpClass                18      0.00%      0.00% # Type of FU issued
system.cpu.iq.FU_type_0::IntAlu              15453086     64.73%     64.73% # Type of FU issued
system.cpu.iq.FU_type_0::IntMult                28948      0.12%     64.85% # Type of FU issued
system.cpu.iq.FU_type_0::IntDiv                     0      0.00%     64.85% # Type of FU issued
system.cpu.iq.FU_type_0::FloatAdd                   0      0.00%     64.85% # Type of FU issued
system.cpu.iq.FU_type_0::FloatCmp                   0      0.00%     64.85% # Type of FU issued
system.cpu.iq.FU_type_0::FloatCvt                   0      0.00%     64.85% # Type of FU issued
system.cpu.iq.FU_type_0::FloatMult                  0      0.00%     64.85% # Type of FU issued
system.cpu.iq.FU_type_0::FloatMultAcc               0      0.00%     64.85% # Type of FU issued
system.cpu.iq.FU_type_0::FloatDiv                   0      0.00%     64.85% # Type of FU issued
system.cpu.iq.FU_type_0::FloatMisc                  0      0.00%     64.85% # Type of FU issued
system.cpu.iq.FU_type_0::FloatSqrt                  0      0.00%     64.85% # Type of FU issued
system.cpu.iq.FU_type_0::SimdAdd                    0      0.00%     64.85% # Type of FU issued
system.cpu.iq.FU_type_0::SimdAddAcc                 0      0.00%     64.85% # Type of FU issued
system.cpu.iq.FU_type_0::SimdAlu                    0      0.00%     64.85% # Type of FU issued
system.cpu.iq.FU_type_0::SimdCmp                    0      0.00%     64.85% # Type of FU issued
system.cpu.iq.FU_type_0::SimdCvt                    0      0.00%     64.85% # Type of FU issued
system.cpu.iq.FU_type_0::SimdMisc                   0      0.00%     64.85% # Type of FU issued
system.cpu.iq.FU_type_0::SimdMult                   0      0.00%     64.85% # Type of FU issued
system.cpu.iq.FU_type_0::SimdMultAcc                0      0.00%     64.85% # Type of FU issued
system.cpu.iq.FU_type_0::SimdShift                  0      0.00%     64.85% # Type of FU issued
system.cpu.iq.FU_type_0::SimdShiftAcc               0      0.00%     64.85% # Type of FU issued
system.cpu.iq.FU_type_0::SimdDiv                    0      0.00%     64.85% # Type of FU issued
system.cpu.iq.FU_type_0::SimdSqrt                   0      0.00%     64.85% # Type of FU issued
system.cpu.iq.FU_type_0::SimdFloatAdd               0      0.00%     64.85% # Type of FU issued
system.cpu.iq.FU_type_0::SimdFloatAlu               0      0.00%     64.85% # Type of FU issued
system.cpu.iq.FU_type_0::SimdFloatCmp               0      0.00%     64.85% # Type of FU issued
system.cpu.iq.FU_type_0::SimdFloatCvt               0      0.00%     64.85% # Type of FU issued
system.cpu.iq.FU_type_0::SimdFloatDiv               0      0.00%     64.85% # Type of FU issued
system.cpu.iq.FU_type_0::SimdFloatMisc              0      0.00%     64.85% # Type of FU issued
system.cpu.iq.FU_type_0::SimdFloatMult              0      0.00%     64.85% # Type of FU issued
system.cpu.iq.FU_type_0::SimdFloatMultAcc            0      0.00%     64.85% # Type of FU issued
system.cpu.iq.FU_type_0::SimdFloatSqrt              0      0.00%     64.85% # Type of FU issued
system.cpu.iq.FU_type_0::SimdReduceAdd              0      0.00%     64.85% # Type of FU issued
system.cpu.iq.FU_type_0::SimdReduceAlu              0      0.00%     64.85% # Type of FU issued
system.cpu.iq.FU_type_0::SimdReduceCmp              0      0.00%     64.85% # Type of FU issued
system.cpu.iq.FU_type_0::SimdFloatReduceAdd            0      0.00%     64.85% # Type of FU issued
system.cpu.iq.FU_type_0::SimdFloatReduceCmp            0      0.00%     64.85% # Type of FU issued
system.cpu.iq.FU_type_0::SimdAes                    0      0.00%     64.85% # Type of FU issued
system.cpu.iq.FU_type_0::SimdAesMix                 0      0.00%     64.85% # Type of FU issued
system.cpu.iq.FU_type_0::SimdSha1Hash               0      0.00%     64.85% # Type of FU issued
system.cpu.iq.FU_type_0::SimdSha1Hash2              0      0.00%     64.85% # Type of FU issued
system.cpu.iq.FU_type_0::SimdSha256Hash             0      0.00%     64.85% # Type of FU issued
system.cpu.iq.FU_type_0::SimdSha256Hash2            0      0.00%     64.85% # Type of FU issued
system.cpu.iq.FU_type_0::SimdShaSigma2              0      0.00%     64.85% # Type of FU issued
system.cpu.iq.FU_type_0::SimdShaSigma3              0      0.00%     64.85% # Type of FU issued
system.cpu.iq.FU_type_0::SimdPredAlu                0      0.00%     64.85% # Type of FU issued
system.cpu.iq.FU_type_0::MemRead              5462632     22.88%     87.74% # Type of FU issued
system.cpu.iq.FU_type_0::MemWrite             2927977     12.26%    100.00% # Type of FU issued
system.cpu.iq.FU_type_0::FloatMemRead               0      0.00%    100.00% # Type of FU issued
system.cpu.iq.FU_type_0::FloatMemWrite              0      0.00%    100.00% # Type of FU issued
system.cpu.iq.FU_type_0::IprAccess                  0      0.00%    100.00% # Type of FU issued
system.cpu.iq.FU_type_0::InstPrefetch               0      0.00%    100.00% # Type of FU issued
system.cpu.iq.FU_type_0::total               23872661                       # Type of FU issued
system.cpu.iq.fp_alu_accesses                       0                       # Number of floating point alu accesses
system.cpu.iq.fp_inst_queue_reads                   0                       # Number of floating instruction queue reads
system.cpu.iq.fp_inst_queue_wakeup_accesses            0                       # Number of floating instruction queue wakeup accesses
system.cpu.iq.fp_inst_queue_writes                  0                       # Number of floating instruction queue writes
system.cpu.iq.fu_busy_cnt                      397814                       # FU busy when requested
system.cpu.iq.fu_busy_rate                   0.016664                       # FU busy rate (busy events/executed inst)
system.cpu.iq.fu_full::No_OpClass                   0      0.00%      0.00% # attempts to use FU when none available
system.cpu.iq.fu_full::IntAlu                  122836     30.88%     30.88% # attempts to use FU when none available
system.cpu.iq.fu_full::IntMult                      0      0.00%     30.88% # attempts to use FU when none available
system.cpu.iq.fu_full::IntDiv                       0      0.00%     30.88% # attempts to use FU when none available
system.cpu.iq.fu_full::FloatAdd                     0      0.00%     30.88% # attempts to use FU when none available
system.cpu.iq.fu_full::FloatCmp                     0      0.00%     30.88% # attempts to use FU when none available
system.cpu.iq.fu_full::FloatCvt                     0      0.00%     30.88% # attempts to use FU when none available
system.cpu.iq.fu_full::FloatMult                    0      0.00%     30.88% # attempts to use FU when none available
system.cpu.iq.fu_full::FloatMultAcc                 0      0.00%     30.88% # attempts to use FU when none available
system.cpu.iq.fu_full::FloatDiv                     0      0.00%     30.88% # attempts to use FU when none available
system.cpu.iq.fu_full::FloatMisc                    0      0.00%     30.88% # attempts to use FU when none available
system.cpu.iq.fu_full::FloatSqrt                    0      0.00%     30.88% # attempts to use FU when none available
system.cpu.iq.fu_full::SimdAdd                      0      0.00%     30.88% # attempts to use FU when none available
system.cpu.iq.fu_full::SimdAddAcc                   0      0.00%     30.88% # attempts to use FU when none available
system.cpu.iq.fu_full::SimdAlu                      0      0.00%     30.88% # attempts to use FU when none available
system.cpu.iq.fu_full::SimdCmp                      0      0.00%     30.88% # attempts to use FU when none available
system.cpu.iq.fu_full::SimdCvt                      0      0.00%     30.88% # attempts to use FU when none available
system.cpu.iq.fu_full::SimdMisc                     0      0.00%     30.88% # attempts to use FU when none available
system.cpu.iq.fu_full::SimdMult                     0      0.00%     30.88% # attempts to use FU when none available
system.cpu.iq.fu_full::SimdMultAcc                  0      0.00%     30.88% # attempts to use FU when none available
system.cpu.iq.fu_full::SimdShift                    0      0.00%     30.88% # attempts to use FU when none available
system.cpu.iq.fu_full::SimdShiftAcc                 0      0.00%     30.88% # attempts to use FU when none available
system.cpu.iq.fu_full::SimdDiv                      0      0.00%     30.88% # attempts to use FU when none available
system.cpu.iq.fu_full::SimdSqrt                     0      0.00%     30.88% # attempts to use FU when none available
system.cpu.iq.fu_full::SimdFloatAdd                 0      0.00%     30.88% # attempts to use FU when none available
system.cpu.iq.fu_full::SimdFloatAlu                 0      0.00%     30.88% # attempts to use FU when none available
system.cpu.iq.fu_full::SimdFloatCmp                 0      0.00%     30.88% # attempts to use FU when none available
system.cpu.iq.fu_full::SimdFloatCvt                 0      0.00%     30.88% # attempts to use FU when none available
system.cpu.iq.fu_full::SimdFloatDiv                 0      0.00%     30.88% # attempts to use FU when none available
system.cpu.iq.fu_full::SimdFloatMisc                0      0.00%     30.88% # attempts to use FU when none available
system.cpu.iq.fu_full::SimdFloatMult                0      0.00%     30.88% # attempts to use FU when none available
system.cpu.iq.fu_full::SimdFloatMultAcc             0      0.00%     30.88% # attempts to use FU when none available
system.cpu.iq.fu_full::SimdFloatSqrt                0      0.00%     30.88% # attempts to use FU when none available
system.cpu.iq.fu_full::SimdReduceAdd                0      0.00%     30.88% # attempts to use FU when none available
system.cpu.iq.fu_full::SimdReduceAlu                0      0.00%     30.88% # attempts to use FU when none available
system.cpu.iq.fu_full::SimdReduceCmp                0      0.00%     30.88% # attempts to use FU when none available
system.cpu.iq.fu_full::SimdFloatReduceAdd            0      0.00%     30.88% # attempts to use FU when none available
system.cpu.iq.fu_full::SimdFloatReduceCmp            0      0.00%     30.88% # attempts to use FU when none available
system.cpu.iq.fu_full::SimdAes                      0      0.00%     30.88% # attempts to use FU when none available
system.cpu.iq.fu_full::SimdAesMix                   0      0.00%     30.88% # attempts to use FU when none available
system.cpu.iq.fu_full::SimdSha1Hash                 0      0.00%     30.88% # attempts to use FU when none available
system.cpu.iq.fu_full::SimdSha1Hash2                0      0.00%     30.88% # attempts to use FU when none available
system.cpu.iq.fu_full::SimdSha256Hash               0      0.00%     30.88% # attempts to use FU when none available
system.cpu.iq.fu_full::SimdSha256Hash2              0      0.00%     30.88% # attempts to use FU when none available
system.cpu.iq.fu_full::SimdShaSigma2                0      0.00%     30.88% # attempts to use FU when none available
system.cpu.iq.fu_full::SimdShaSigma3                0      0.00%     30.88% # attempts to use FU when none available
system.cpu.iq.fu_full::SimdPredAlu                  0      0.00%     30.88% # attempts to use FU when none available
system.cpu.iq.fu_full::MemRead                 119378     30.01%     60.89% # attempts to use FU when none available
system.cpu.iq.fu_full::MemWrite                155600     39.11%    100.00% # attempts to use FU when none available
system.cpu.iq.fu_full::FloatMemRead                 0      0.00%    100.00% # attempts to use FU when none available
system.cpu.iq.fu_full::FloatMemWrite                0      0.00%    100.00% # attempts to use FU when none available
system.cpu.iq.fu_full::IprAccess                    0      0.00%    100.00% # attempts to use FU when none available
system.cpu.iq.fu_full::InstPrefetch                 0      0.00%    100.00% # attempts to use FU when none available
system.cpu.iq.int_alu_accesses               24270457                       # Number of integer alu accesses
system.cpu.iq.int_inst_queue_reads           63217554                       # Number of integer instruction queue reads
system.cpu.iq.int_inst_queue_wakeup_accesses     22948213                       # Number of integer instruction queue wakeup accesses
system.cpu.iq.int_inst_queue_writes          34827698                       # Number of integer instruction queue writes
system.cpu.iq.iqInstsAdded                   26954518                       # Number of instructions added to the IQ (excludes non-spec)
system.cpu.iq.iqInstsIssued                  23872661                       # Number of instructions issued
system.cpu.iq.iqNonSpecInstsAdded              102913                       # Number of non-speculative instructions added to the IQ
system.cpu.iq.iqSquashedInstsExamined         7769919                       # Number of squashed instructions iterated over during squash; mainly for profiling
system.cpu.iq.iqSquashedInstsIssued            168831                       # Number of squashed instructions issued
system.cpu.iq.iqSquashedNonSpecRemoved          12837                       # Number of squashed non-spec instructions that were removed
system.cpu.iq.iqSquashedOperandsExamined     17441541                       # Number of squashed operands that are examined and possibly removed from graph
system.cpu.iq.issued_per_cycle::samples      14905587                       # Number of insts issued each cycle
system.cpu.iq.issued_per_cycle::mean         1.601591                       # Number of insts issued each cycle
system.cpu.iq.issued_per_cycle::stdev        2.029140                       # Number of insts issued each cycle
system.cpu.iq.issued_per_cycle::underflows            0      0.00%      0.00% # Number of insts issued each cycle
system.cpu.iq.issued_per_cycle::0             7155266     48.00%     48.00% # Number of insts issued each cycle
system.cpu.iq.issued_per_cycle::1             1877645     12.60%     60.60% # Number of insts issued each cycle
system.cpu.iq.issued_per_cycle::2             1713626     11.50%     72.10% # Number of insts issued each cycle
system.cpu.iq.issued_per_cycle::3             1189560      7.98%     80.08% # Number of insts issued each cycle
system.cpu.iq.issued_per_cycle::4             1366035      9.16%     89.24% # Number of insts issued each cycle
system.cpu.iq.issued_per_cycle::5              681521      4.57%     93.81% # Number of insts issued each cycle
system.cpu.iq.issued_per_cycle::6              496042      3.33%     97.14% # Number of insts issued each cycle
system.cpu.iq.issued_per_cycle::7              256049      1.72%     98.86% # Number of insts issued each cycle
system.cpu.iq.issued_per_cycle::8              169843      1.14%    100.00% # Number of insts issued each cycle
system.cpu.iq.issued_per_cycle::overflows            0      0.00%    100.00% # Number of insts issued each cycle
system.cpu.iq.issued_per_cycle::min_value            0                       # Number of insts issued each cycle
system.cpu.iq.issued_per_cycle::max_value            8                       # Number of insts issued each cycle
system.cpu.iq.issued_per_cycle::total        14905587                       # Number of insts issued each cycle
system.cpu.iq.rate                           1.596314                       # Inst issue rate
system.cpu.iq.vec_alu_accesses                      0                       # Number of vector alu accesses
system.cpu.iq.vec_inst_queue_reads                  0                       # Number of vector instruction queue reads
system.cpu.iq.vec_inst_queue_wakeup_accesses            0                       # Number of vector instruction queue wakeup accesses
system.cpu.iq.vec_inst_queue_writes                 0                       # Number of vector instruction queue writes
system.cpu.memDep0.conflictingLoads            322295                       # Number of conflicting loads.
system.cpu.memDep0.conflictingStores           430719                       # Number of conflicting stores.
system.cpu.memDep0.insertedLoads              5924820                       # Number of loads inserted to the mem dependence unit.
system.cpu.memDep0.insertedStores             3136548                       # Number of stores inserted to the mem dependence unit.
system.cpu.misc_regfile_reads                54593290                       # number of misc regfile reads
system.cpu.misc_regfile_writes                 160105                       # number of misc regfile writes
system.cpu.numCycles                         14954861                       # number of cpu cycles simulated
system.cpu.numWorkItemsCompleted                    0                       # number of work items this cpu completed
system.cpu.numWorkItemsStarted                      0                       # number of work items this cpu started
system.cpu.timesIdled                             486                       # Number of times that the entire CPU went into an idle state and unscheduled itself
system.cpu.vec_regfile_reads                       16                       # number of vector regfile reads
system.cpu.workload.numSyscalls                 10023                       # Number of system calls
system.membus.snoop_filter.hit_multi_requests            0                       # Number of requests hitting in the snoop filter with multiple (>1) holders of the requested data.
system.membus.snoop_filter.hit_multi_snoops            0                       # Number of snoops hitting in the snoop filter with multiple (>1) holders of the requested data.
system.membus.snoop_filter.hit_single_requests            0                       # Number of requests hitting in the snoop filter with a single holder of the requested data.
system.membus.snoop_filter.hit_single_snoops            0                       # Number of snoops hitting in the snoop filter with a single holder of the requested data.
system.membus.snoop_filter.tot_requests         22295                       # Total number of requests made to the snoop filter.
system.membus.snoop_filter.tot_snoops               0                       # Total number of snoops made to the snoop filter.
system.tol2bus.snoop_filter.hit_multi_requests           86                       # Number of requests hitting in the snoop filter with multiple (>1) holders of the requested data.
system.tol2bus.snoop_filter.hit_multi_snoops            0                       # Number of snoops hitting in the snoop filter with multiple (>1) holders of the requested data.
system.tol2bus.snoop_filter.hit_single_requests       117572                       # Number of requests hitting in the snoop filter with a single holder of the requested data.
system.tol2bus.snoop_filter.hit_single_snoops            0                       # Number of snoops hitting in the snoop filter with a single holder of the requested data.
system.tol2bus.snoop_filter.tot_requests       236594                       # Total number of requests made to the snoop filter.
system.tol2bus.snoop_filter.tot_snoops              0                       # Total number of snoops made to the snoop filter.
system.clk_domain.clock                          1000                       # Clock period in ticks
system.cpu.branchPred.lookups                 6909181                       # Number of BP lookups
system.cpu.branchPred.condPredicted           5010731                       # Number of conditional branches predicted
system.cpu.branchPred.condIncorrect            254701                       # Number of conditional branches incorrect
system.cpu.branchPred.BTBLookups              2903467                       # Number of BTB lookups
system.cpu.branchPred.BTBHits                 2899569                       # Number of BTB hits
system.cpu.branchPred.BTBHitPct             99.865747                       # BTB Hit Percentage
system.cpu.branchPred.RASUsed                  836773                       # Number of times the RAS was used to get a target.
system.cpu.branchPred.RASIncorrect              60088                       # Number of incorrect RAS predictions.
system.cpu.branchPred.indirectLookups          470684                       # Number of indirect predictor lookups.
system.cpu.branchPred.indirectHits             463888                       # Number of indirect target hits.
system.cpu.branchPred.indirectMisses             6796                       # Number of indirect misses.
system.cpu.branchPred.indirectMispredicted         6007                       # Number of mispredicted indirect branches.
system.cpu.commit.commitSquashedInsts         7768965                       # The number of squashed insts skipped by commit
system.cpu.commit.commitNonSpecStalls           90076                       # The number of times commit has been forced to stall to communicate backwards
system.cpu.commit.branchMispredicts            254353                       # The number of times a branch was mispredicted
system.cpu.commit.numCommittedDist::samples     13770825                       # Number of insts commited each cycle
system.cpu.commit.numCommittedDist::mean     1.400607                       # Number of insts commited each cycle
system.cpu.commit.numCommittedDist::stdev     2.317552                       # Number of insts commited each cycle
system.cpu.commit.numCommittedDist::underflows            0      0.00%      0.00% # Number of insts commited each cycle
system.cpu.commit.numCommittedDist::0         7988039     58.01%     58.01% # Number of insts commited each cycle
system.cpu.commit.numCommittedDist::1         1805485     13.11%     71.12% # Number of insts commited each cycle
system.cpu.commit.numCommittedDist::2         1287775      9.35%     80.47% # Number of insts commited each cycle
system.cpu.commit.numCommittedDist::3          629009      4.57%     85.04% # Number of insts commited each cycle
system.cpu.commit.numCommittedDist::4          550987      4.00%     89.04% # Number of insts commited each cycle
system.cpu.commit.numCommittedDist::5          231941      1.68%     90.72% # Number of insts commited each cycle
system.cpu.commit.numCommittedDist::6          227015      1.65%     92.37% # Number of insts commited each cycle
system.cpu.commit.numCommittedDist::7          110886      0.81%     93.18% # Number of insts commited each cycle
system.cpu.commit.numCommittedDist::8          939688      6.82%    100.00% # Number of insts commited each cycle
system.cpu.commit.numCommittedDist::overflows            0      0.00%    100.00% # Number of insts commited each cycle
system.cpu.commit.numCommittedDist::min_value            0                       # Number of insts commited each cycle
system.cpu.commit.numCommittedDist::max_value            8                       # Number of insts commited each cycle
system.cpu.commit.numCommittedDist::total     13770825                       # Number of insts commited each cycle
system.cpu.commit.instsCommitted             15255958                       # Number of instructions committed
system.cpu.commit.opsCommitted               19287511                       # Number of ops (including micro ops) committed
system.cpu.commit.memRefs                     6888069                       # Number of memory references committed
system.cpu.commit.loads                       4099688                       # Number of loads committed
system.cpu.commit.amos                              0                       # Number of atomic instructions committed
system.cpu.commit.membars                       40027                       # Number of memory barriers committed
system.cpu.commit.branches                    3824648                       # Number of branches committed
system.cpu.commit.vector                            0                       # Number of committed Vector instructions.
system.cpu.commit.floating                          0                       # Number of committed floating point instructions.
system.cpu.commit.integer                    16615058                       # Number of committed integer instructions.
system.cpu.commit.functionCalls                475580                       # Number of function calls committed.
system.cpu.commit.committedInstType_0::No_OpClass            0      0.00%      0.00% # Class of committed instruction
system.cpu.commit.committedInstType_0::IntAlu     12374998     64.16%     64.16% # Class of committed instruction
system.cpu.commit.committedInstType_0::IntMult        24444      0.13%     64.29% # Class of committed instruction
system.cpu.commit.committedInstType_0::IntDiv            0      0.00%     64.29% # Class of committed instruction
system.cpu.commit.committedInstType_0::FloatAdd            0      0.00%     64.29% # Class of committed instruction
system.cpu.commit.committedInstType_0::FloatCmp            0      0.00%     64.29% # Class of committed instruction
system.cpu.commit.committedInstType_0::FloatCvt            0      0.00%     64.29% # Class of committed instruction
system.cpu.commit.committedInstType_0::FloatMult            0      0.00%     64.29% # Class of committed instruction
system.cpu.commit.committedInstType_0::FloatMultAcc            0      0.00%     64.29% # Class of committed instruction
system.cpu.commit.committedInstType_0::FloatDiv            0      0.00%     64.29% # Class of committed instruction
system.cpu.commit.committedInstType_0::FloatMisc            0      0.00%     64.29% # Class of committed instruction
system.cpu.commit.committedInstType_0::FloatSqrt            0      0.00%     64.29% # Class of committed instruction
system.cpu.commit.committedInstType_0::SimdAdd            0      0.00%     64.29% # Class of committed instruction
system.cpu.commit.committedInstType_0::SimdAddAcc            0      0.00%     64.29% # Class of committed instruction
system.cpu.commit.committedInstType_0::SimdAlu            0      0.00%     64.29% # Class of committed instruction
system.cpu.commit.committedInstType_0::SimdCmp            0      0.00%     64.29% # Class of committed instruction
system.cpu.commit.committedInstType_0::SimdCvt            0      0.00%     64.29% # Class of committed instruction
system.cpu.commit.committedInstType_0::SimdMisc            0      0.00%     64.29% # Class of committed instruction
system.cpu.commit.committedInstType_0::SimdMult            0      0.00%     64.29% # Class of committed instruction
system.cpu.commit.committedInstType_0::SimdMultAcc            0      0.00%     64.29% # Class of committed instruction
system.cpu.commit.committedInstType_0::SimdShift            0      0.00%     64.29% # Class of committed instruction
system.cpu.commit.committedInstType_0::SimdShiftAcc            0      0.00%     64.29% # Class of committed instruction
system.cpu.commit.committedInstType_0::SimdDiv            0      0.00%     64.29% # Class of committed instruction
system.cpu.commit.committedInstType_0::SimdSqrt            0      0.00%     64.29% # Class of committed instruction
system.cpu.commit.committedInstType_0::SimdFloatAdd            0      0.00%     64.29% # Class of committed instruction
system.cpu.commit.committedInstType_0::SimdFloatAlu            0      0.00%     64.29% # Class of committed instruction
system.cpu.commit.committedInstType_0::SimdFloatCmp            0      0.00%     64.29% # Class of committed instruction
system.cpu.commit.committedInstType_0::SimdFloatCvt            0      0.00%     64.29% # Class of committed instruction
system.cpu.commit.committedInstType_0::SimdFloatDiv            0      0.00%     64.29% # Class of committed instruction
system.cpu.commit.committedInstType_0::SimdFloatMisc            0      0.00%     64.29% # Class of committed instruction
system.cpu.commit.committedInstType_0::SimdFloatMult            0      0.00%     64.29% # Class of committed instruction
system.cpu.commit.committedInstType_0::SimdFloatMultAcc            0      0.00%     64.29% # Class of committed instruction
system.cpu.commit.committedInstType_0::SimdFloatSqrt            0      0.00%     64.29% # Class of committed instruction
system.cpu.commit.committedInstType_0::SimdReduceAdd            0      0.00%     64.29% # Class of committed instruction
system.cpu.commit.committedInstType_0::SimdReduceAlu            0      0.00%     64.29% # Class of committed instruction
system.cpu.commit.committedInstType_0::SimdReduceCmp            0      0.00%     64.29% # Class of committed instruction
system.cpu.commit.committedInstType_0::SimdFloatReduceAdd            0      0.00%     64.29% # Class of committed instruction
system.cpu.commit.committedInstType_0::SimdFloatReduceCmp            0      0.00%     64.29% # Class of committed instruction
system.cpu.commit.committedInstType_0::SimdAes            0      0.00%     64.29% # Class of committed instruction
system.cpu.commit.committedInstType_0::SimdAesMix            0      0.00%     64.29% # Class of committed instruction
system.cpu.commit.committedInstType_0::SimdSha1Hash            0      0.00%     64.29% # Class of committed instruction
system.cpu.commit.committedInstType_0::SimdSha1Hash2            0      0.00%     64.29% # Class of committed instruction
system.cpu.commit.committedInstType_0::SimdSha256Hash            0      0.00%     64.29% # Class of committed instruction
system.cpu.commit.committedInstType_0::SimdSha256Hash2            0      0.00%     64.29% # Class of committed instruction
system.cpu.commit.committedInstType_0::SimdShaSigma2            0      0.00%     64.29% # Class of committed instruction
system.cpu.commit.committedInstType_0::SimdShaSigma3            0      0.00%     64.29% # Class of committed instruction
system.cpu.commit.committedInstType_0::SimdPredAlu            0      0.00%     64.29% # Class of committed instruction
system.cpu.commit.committedInstType_0::MemRead      4099688     21.26%     85.54% # Class of committed instruction
system.cpu.commit.committedInstType_0::MemWrite      2788381     14.46%    100.00% # Class of committed instruction
system.cpu.commit.committedInstType_0::FloatMemRead            0      0.00%    100.00% # Class of committed instruction
system.cpu.commit.committedInstType_0::FloatMemWrite            0      0.00%    100.00% # Class of committed instruction
system.cpu.commit.committedInstType_0::IprAccess            0      0.00%    100.00% # Class of committed instruction
system.cpu.commit.committedInstType_0::InstPrefetch            0      0.00%    100.00% # Class of committed instruction
system.cpu.commit.committedInstType_0::total     19287511                       # Class of committed instruction
system.cpu.commit.commitEligibleSamples        939688                       # number cycles where commit BW limit reached
system.cpu.dcache.demand_hits::.cpu.data      6740548                       # number of demand (read+write) hits
system.cpu.dcache.demand_hits::total          6740548                       # number of demand (read+write) hits
system.cpu.dcache.overall_hits::.cpu.data      6740548                       # number of overall hits
system.cpu.dcache.overall_hits::total         6740548                       # number of overall hits
system.cpu.dcache.demand_misses::.cpu.data       613333                       # number of demand (read+write) misses
system.cpu.dcache.demand_misses::total         613333                       # number of demand (read+write) misses
system.cpu.dcache.overall_misses::.cpu.data       613333                       # number of overall misses
system.cpu.dcache.overall_misses::total        613333                       # number of overall misses
system.cpu.dcache.demand_miss_latency::.cpu.data  15174321987                       # number of demand (read+write) miss cycles
system.cpu.dcache.demand_miss_latency::total  15174321987                       # number of demand (read+write) miss cycles
system.cpu.dcache.overall_miss_latency::.cpu.data  15174321987                       # number of overall miss cycles
system.cpu.dcache.overall_miss_latency::total  15174321987                       # number of overall miss cycles
system.cpu.dcache.demand_accesses::.cpu.data      7353881                       # number of demand (read+write) accesses
system.cpu.dcache.demand_accesses::total      7353881                       # number of demand (read+write) accesses
system.cpu.dcache.overall_accesses::.cpu.data      7353881                       # number of overall (read+write) accesses
system.cpu.dcache.overall_accesses::total      7353881                       # number of overall (read+write) accesses
system.cpu.dcache.demand_miss_rate::.cpu.data     0.083403                       # miss rate for demand accesses
system.cpu.dcache.demand_miss_rate::total     0.083403                       # miss rate for demand accesses
system.cpu.dcache.overall_miss_rate::.cpu.data     0.083403                       # miss rate for overall accesses
system.cpu.dcache.overall_miss_rate::total     0.083403                       # miss rate for overall accesses
system.cpu.dcache.demand_avg_miss_latency::.cpu.data 24740.755816                       # average overall miss latency
system.cpu.dcache.demand_avg_miss_latency::total 24740.755816                       # average overall miss latency
system.cpu.dcache.overall_avg_miss_latency::.cpu.data 24740.755816                       # average overall miss latency
system.cpu.dcache.overall_avg_miss_latency::total 24740.755816                       # average overall miss latency
system.cpu.dcache.blocked_cycles::no_mshrs         3170                       # number of cycles access was blocked
system.cpu.dcache.blocked_cycles::no_targets            0                       # number of cycles access was blocked
system.cpu.dcache.blocked::no_mshrs               340                       # number of cycles access was blocked
system.cpu.dcache.blocked::no_targets               0                       # number of cycles access was blocked
system.cpu.dcache.avg_blocked_cycles::no_mshrs     9.323529                       # average number of cycles each access was blocked
system.cpu.dcache.avg_blocked_cycles::no_targets          nan                       # average number of cycles each access was blocked
system.cpu.dcache.writebacks::.writebacks       116538                       # number of writebacks
system.cpu.dcache.writebacks::total            116538                       # number of writebacks
system.cpu.dcache.demand_mshr_hits::.cpu.data       495046                       # number of demand (read+write) MSHR hits
system.cpu.dcache.demand_mshr_hits::total       495046                       # number of demand (read+write) MSHR hits
system.cpu.dcache.overall_mshr_hits::.cpu.data       495046                       # number of overall MSHR hits
system.cpu.dcache.overall_mshr_hits::total       495046                       # number of overall MSHR hits
system.cpu.dcache.demand_mshr_misses::.cpu.data       118287                       # number of demand (read+write) MSHR misses
system.cpu.dcache.demand_mshr_misses::total       118287                       # number of demand (read+write) MSHR misses
system.cpu.dcache.overall_mshr_misses::.cpu.data       118287                       # number of overall MSHR misses
system.cpu.dcache.overall_mshr_misses::total       118287                       # number of overall MSHR misses
system.cpu.dcache.demand_mshr_miss_latency::.cpu.data   3035858999                       # number of demand (read+write) MSHR miss cycles
system.cpu.dcache.demand_mshr_miss_latency::total   3035858999                       # number of demand (read+write) MSHR miss cycles
system.cpu.dcache.overall_mshr_miss_latency::.cpu.data   3035858999                       # number of overall MSHR miss cycles
system.cpu.dcache.overall_mshr_miss_latency::total   3035858999                       # number of overall MSHR miss cycles
system.cpu.dcache.demand_mshr_miss_rate::.cpu.data     0.016085                       # mshr miss rate for demand accesses
system.cpu.dcache.demand_mshr_miss_rate::total     0.016085                       # mshr miss rate for demand accesses
system.cpu.dcache.overall_mshr_miss_rate::.cpu.data     0.016085                       # mshr miss rate for overall accesses
system.cpu.dcache.overall_mshr_miss_rate::total     0.016085                       # mshr miss rate for overall accesses
system.cpu.dcache.demand_avg_mshr_miss_latency::.cpu.data 25665.195660                       # average overall mshr miss latency
system.cpu.dcache.demand_avg_mshr_miss_latency::total 25665.195660                       # average overall mshr miss latency
system.cpu.dcache.overall_avg_mshr_miss_latency::.cpu.data 25665.195660                       # average overall mshr miss latency
system.cpu.dcache.overall_avg_mshr_miss_latency::total 25665.195660                       # average overall mshr miss latency
system.cpu.dcache.replacements                 117263                       # number of replacements
system.cpu.dcache.ReadReq_hits::.cpu.data      4216574                       # number of ReadReq hits
system.cpu.dcache.ReadReq_hits::total         4216574                       # number of ReadReq hits
system.cpu.dcache.ReadReq_misses::.cpu.data       527379                       # number of ReadReq misses
system.cpu.dcache.ReadReq_misses::total        527379                       # number of ReadReq misses
system.cpu.dcache.ReadReq_miss_latency::.cpu.data  10715670500                       # number of ReadReq miss cycles
system.cpu.dcache.ReadReq_miss_latency::total  10715670500                       # number of ReadReq miss cycles
system.cpu.dcache.ReadReq_accesses::.cpu.data      4743953                       # number of ReadReq accesses(hits+misses)
system.cpu.dcache.ReadReq_accesses::total      4743953                       # number of ReadReq accesses(hits+misses)
system.cpu.dcache.ReadReq_miss_rate::.cpu.data     0.111169                       # miss rate for ReadReq accesses
system.cpu.dcache.ReadReq_miss_rate::total     0.111169                       # miss rate for ReadReq accesses
system.cpu.dcache.ReadReq_avg_miss_latency::.cpu.data 20318.728087                       # average ReadReq miss latency
system.cpu.dcache.ReadReq_avg_miss_latency::total 20318.728087                       # average ReadReq miss latency
system.cpu.dcache.ReadReq_mshr_hits::.cpu.data       422970                       # number of ReadReq MSHR hits
system.cpu.dcache.ReadReq_mshr_hits::total       422970                       # number of ReadReq MSHR hits
system.cpu.dcache.ReadReq_mshr_misses::.cpu.data       104409                       # number of ReadReq MSHR misses
system.cpu.dcache.ReadReq_mshr_misses::total       104409                       # number of ReadReq MSHR misses
system.cpu.dcache.ReadReq_mshr_miss_latency::.cpu.data   2130153500                       # number of ReadReq MSHR miss cycles
system.cpu.dcache.ReadReq_mshr_miss_latency::total   2130153500                       # number of ReadReq MSHR miss cycles
system.cpu.dcache.ReadReq_mshr_miss_rate::.cpu.data     0.022009                       # mshr miss rate for ReadReq accesses
system.cpu.dcache.ReadReq_mshr_miss_rate::total     0.022009                       # mshr miss rate for ReadReq accesses
system.cpu.dcache.ReadReq_avg_mshr_miss_latency::.cpu.data 20402.010363                       # average ReadReq mshr miss latency
system.cpu.dcache.ReadReq_avg_mshr_miss_latency::total 20402.010363                       # average ReadReq mshr miss latency
system.cpu.dcache.WriteReq_hits::.cpu.data      2523974                       # number of WriteReq hits
system.cpu.dcache.WriteReq_hits::total        2523974                       # number of WriteReq hits
system.cpu.dcache.WriteReq_misses::.cpu.data        85954                       # number of WriteReq misses
system.cpu.dcache.WriteReq_misses::total        85954                       # number of WriteReq misses
system.cpu.dcache.WriteReq_miss_latency::.cpu.data   4458651487                       # number of WriteReq miss cycles
system.cpu.dcache.WriteReq_miss_latency::total   4458651487                       # number of WriteReq miss cycles
system.cpu.dcache.WriteReq_accesses::.cpu.data      2609928                       # number of WriteReq accesses(hits+misses)
system.cpu.dcache.WriteReq_accesses::total      2609928                       # number of WriteReq accesses(hits+misses)
system.cpu.dcache.WriteReq_miss_rate::.cpu.data     0.032933                       # miss rate for WriteReq accesses
system.cpu.dcache.WriteReq_miss_rate::total     0.032933                       # miss rate for WriteReq accesses
system.cpu.dcache.WriteReq_avg_miss_latency::.cpu.data 51872.530505                       # average WriteReq miss latency
system.cpu.dcache.WriteReq_avg_miss_latency::total 51872.530505                       # average WriteReq miss latency
system.cpu.dcache.WriteReq_mshr_hits::.cpu.data        72076                       # number of WriteReq MSHR hits
system.cpu.dcache.WriteReq_mshr_hits::total        72076                       # number of WriteReq MSHR hits
system.cpu.dcache.WriteReq_mshr_misses::.cpu.data        13878                       # number of WriteReq MSHR misses
system.cpu.dcache.WriteReq_mshr_misses::total        13878                       # number of WriteReq MSHR misses
system.cpu.dcache.WriteReq_mshr_miss_latency::.cpu.data    905705499                       # number of WriteReq MSHR miss cycles
system.cpu.dcache.WriteReq_mshr_miss_latency::total    905705499                       # number of WriteReq MSHR miss cycles
system.cpu.dcache.WriteReq_mshr_miss_rate::.cpu.data     0.005317                       # mshr miss rate for WriteReq accesses
system.cpu.dcache.WriteReq_mshr_miss_rate::total     0.005317                       # mshr miss rate for WriteReq accesses
system.cpu.dcache.WriteReq_avg_mshr_miss_latency::.cpu.data 65261.961306                       # average WriteReq mshr miss latency
system.cpu.dcache.WriteReq_avg_mshr_miss_latency::total 65261.961306                       # average WriteReq mshr miss latency
system.cpu.dcache.LoadLockedReq_hits::.cpu.data        42831                       # number of LoadLockedReq hits
system.cpu.dcache.LoadLockedReq_hits::total        42831                       # number of LoadLockedReq hits
system.cpu.dcache.LoadLockedReq_misses::.cpu.data            5                       # number of LoadLockedReq misses
system.cpu.dcache.LoadLockedReq_misses::total            5                       # number of LoadLockedReq misses
system.cpu.dcache.LoadLockedReq_miss_latency::.cpu.data       110000                       # number of LoadLockedReq miss cycles
system.cpu.dcache.LoadLockedReq_miss_latency::total       110000                       # number of LoadLockedReq miss cycles
system.cpu.dcache.LoadLockedReq_accesses::.cpu.data        42836                       # number of LoadLockedReq accesses(hits+misses)
system.cpu.dcache.LoadLockedReq_accesses::total        42836                       # number of LoadLockedReq accesses(hits+misses)
system.cpu.dcache.LoadLockedReq_miss_rate::.cpu.data     0.000117                       # miss rate for LoadLockedReq accesses
system.cpu.dcache.LoadLockedReq_miss_rate::total     0.000117                       # miss rate for LoadLockedReq accesses
system.cpu.dcache.LoadLockedReq_avg_miss_latency::.cpu.data        22000                       # average LoadLockedReq miss latency
system.cpu.dcache.LoadLockedReq_avg_miss_latency::total        22000                       # average LoadLockedReq miss latency
system.cpu.dcache.LoadLockedReq_mshr_hits::.cpu.data            5                       # number of LoadLockedReq MSHR hits
system.cpu.dcache.LoadLockedReq_mshr_hits::total            5                       # number of LoadLockedReq MSHR hits
system.cpu.dcache.StoreCondReq_hits::.cpu.data        40026                       # number of StoreCondReq hits
system.cpu.dcache.StoreCondReq_hits::total        40026                       # number of StoreCondReq hits
system.cpu.dcache.StoreCondReq_accesses::.cpu.data        40026                       # number of StoreCondReq accesses(hits+misses)
system.cpu.dcache.StoreCondReq_accesses::total        40026                       # number of StoreCondReq accesses(hits+misses)
system.cpu.dcache.power_state.pwrStateResidencyTicks::UNDEFINED   7477430000                       # Cumulative time (in ticks) in various power states
system.cpu.dcache.tags.tagsinuse           918.373887                       # Cycle average of tags in use
system.cpu.dcache.tags.total_refs             6941692                       # Total number of references to valid blocks.
system.cpu.dcache.tags.sampled_refs            118287                       # Sample count of references to valid blocks.
system.cpu.dcache.tags.avg_refs             58.685164                       # Average number of references to valid blocks.
system.cpu.dcache.tags.warmup_cycle            161000                       # Cycle when the warmup percentage was hit.
system.cpu.dcache.tags.occ_blocks::.cpu.data   918.373887                       # Average occupied blocks per requestor
system.cpu.dcache.tags.occ_percent::.cpu.data     0.896849                       # Average percentage of cache occupancy
system.cpu.dcache.tags.occ_percent::total     0.896849                       # Average percentage of cache occupancy
system.cpu.dcache.tags.occ_task_id_blocks::1024         1024                       # Occupied blocks per task id
system.cpu.dcache.tags.age_task_id_blocks_1024::0           81                       # Occupied blocks per task id
system.cpu.dcache.tags.age_task_id_blocks_1024::1          442                       # Occupied blocks per task id
system.cpu.dcache.tags.age_task_id_blocks_1024::3          501                       # Occupied blocks per task id
system.cpu.dcache.tags.occ_task_id_percent::1024            1                       # Percentage of cache occupancy per task id
system.cpu.dcache.tags.tag_accesses          14991773                       # Number of tag accesses
system.cpu.dcache.tags.data_accesses         14991773                       # Number of data accesses
system.cpu.dcache.tags.power_state.pwrStateResidencyTicks::UNDEFINED   7477430000                       # Cumulative time (in ticks) in various power states
system.cpu.decode.idleCycles                  3220443                       # Number of cycles decode is idle
system.cpu.decode.blockedCycles               6082194                       # Number of cycles decode is blocked
system.cpu.decode.runCycles                   4852280                       # Number of cycles decode is running
system.cpu.decode.unblockCycles                486046                       # Number of cycles decode is unblocking
system.cpu.decode.squashCycles                 264624                       # Number of cycles decode is squashing
system.cpu.decode.branchResolved              2524099                       # Number of times decode resolved a  branch
system.cpu.decode.branchMispred                   379                       # Number of times decode detected a branch misprediction
system.cpu.decode.decodedInsts               30468205                       # Number of instructions handled by decode
system.cpu.decode.squashedInsts                  1279                       # Number of squashed instructions handled by decode
system.cpu.dtb.instHits                             0                       # ITB inst hits
system.cpu.dtb.instMisses                           0                       # ITB inst misses
system.cpu.dtb.readHits                             0                       # DTB read hits
system.cpu.dtb.readMisses                           0                       # DTB read misses
system.cpu.dtb.writeHits                            0                       # DTB write hits
system.cpu.dtb.writeMisses                          0                       # DTB write misses
system.cpu.dtb.inserts                              0                       # Number of times an entry is inserted into the TLB
system.cpu.dtb.flushTlb                             0                       # Number of times complete TLB was flushed
system.cpu.dtb.flushTlbMva                          0                       # Number of times TLB was flushed by MVA
system.cpu.dtb.flushTlbMvaAsid                      0                       # Number of times TLB was flushed by MVA & ASID
system.cpu.dtb.flushTlbAsid                         0                       # Number of times TLB was flushed by ASID
system.cpu.dtb.flushedEntries                       0                       # Number of entries that have been flushed from TLB
system.cpu.dtb.alignFaults                          0                       # Number of TLB faults due to alignment restrictions
system.cpu.dtb.prefetchFaults                       0                       # Number of TLB faults due to prefetch
system.cpu.dtb.domainFaults                         0                       # Number of TLB faults due to domain restrictions
system.cpu.dtb.permsFaults                          0                       # Number of TLB faults due to permissions restrictions
system.cpu.dtb.readAccesses                         0                       # DTB read accesses
system.cpu.dtb.writeAccesses                        0                       # DTB write accesses
system.cpu.dtb.instAccesses                         0                       # ITB inst accesses
system.cpu.dtb.hits                                 0                       # Total TLB (inst and data) hits
system.cpu.dtb.misses                               0                       # Total TLB (inst and data) misses
system.cpu.dtb.accesses                             0                       # Total TLB (inst and data) accesses
system.cpu.dtb.stage2_mmu.stage2_tlb.instHits            0                       # ITB inst hits
system.cpu.dtb.stage2_mmu.stage2_tlb.instMisses            0                       # ITB inst misses
system.cpu.dtb.stage2_mmu.stage2_tlb.readHits            0                       # DTB read hits
system.cpu.dtb.stage2_mmu.stage2_tlb.readMisses            0                       # DTB read misses
system.cpu.dtb.stage2_mmu.stage2_tlb.writeHits            0                       # DTB write hits
system.cpu.dtb.stage2_mmu.stage2_tlb.writeMisses            0                       # DTB write misses
system.cpu.dtb.stage2_mmu.stage2_tlb.inserts            0                       # Number of times an entry is inserted into the TLB
system.cpu.dtb.stage2_mmu.stage2_tlb.flushTlb            0                       # Number of times complete TLB was flushed
system.cpu.dtb.stage2_mmu.stage2_tlb.flushTlbMva            0                       # Number of times TLB was flushed by MVA
system.cpu.dtb.stage2_mmu.stage2_tlb.flushTlbMvaAsid            0                       # Number of times TLB was flushed by MVA & ASID
system.cpu.dtb.stage2_mmu.stage2_tlb.flushTlbAsid            0                       # Number of times TLB was flushed by ASID
system.cpu.dtb.stage2_mmu.stage2_tlb.flushedEntries            0                       # Number of entries that have been flushed from TLB
system.cpu.dtb.stage2_mmu.stage2_tlb.alignFaults            0                       # Number of TLB faults due to alignment restrictions
system.cpu.dtb.stage2_mmu.stage2_tlb.prefetchFaults            0                       # Number of TLB faults due to prefetch
system.cpu.dtb.stage2_mmu.stage2_tlb.domainFaults            0                       # Number of TLB faults due to domain restrictions
system.cpu.dtb.stage2_mmu.stage2_tlb.permsFaults            0                       # Number of TLB faults due to permissions restrictions
system.cpu.dtb.stage2_mmu.stage2_tlb.readAccesses            0                       # DTB read accesses
system.cpu.dtb.stage2_mmu.stage2_tlb.writeAccesses            0                       # DTB write accesses
system.cpu.dtb.stage2_mmu.stage2_tlb.instAccesses            0                       # ITB inst accesses
system.cpu.dtb.stage2_mmu.stage2_tlb.hits            0                       # Total TLB (inst and data) hits
system.cpu.dtb.stage2_mmu.stage2_tlb.misses            0                       # Total TLB (inst and data) misses
system.cpu.dtb.stage2_mmu.stage2_tlb.accesses            0                       # Total TLB (inst and data) accesses
system.cpu.dtb.stage2_mmu.stage2_tlb.walker.walks            0                       # Table walker walks requested
system.cpu.dtb.stage2_mmu.stage2_tlb.walker.requestOrigin_Requested::Data            0                       # Table walker requests started/completed, data/inst
system.cpu.dtb.stage2_mmu.stage2_tlb.walker.requestOrigin_Requested::Inst            0                       # Table walker requests started/completed, data/inst
system.cpu.dtb.stage2_mmu.stage2_tlb.walker.requestOrigin_Requested::total            0                       # Table walker requests started/completed, data/inst
system.cpu.dtb.stage2_mmu.stage2_tlb.walker.requestOrigin_Completed::Data            0                       # Table walker requests started/completed, data/inst
system.cpu.dtb.stage2_mmu.stage2_tlb.walker.requestOrigin_Completed::Inst            0                       # Table walker requests started/completed, data/inst
system.cpu.dtb.stage2_mmu.stage2_tlb.walker.requestOrigin_Completed::total            0                       # Table walker requests started/completed, data/inst
system.cpu.dtb.stage2_mmu.stage2_tlb.walker.requestOrigin::total            0                       # Table walker requests started/completed, data/inst
system.cpu.dtb.stage2_mmu.stage2_tlb.walker.power_state.pwrStateResidencyTicks::UNDEFINED   7477430000                       # Cumulative time (in ticks) in various power states
system.cpu.dtb.walker.walks                         0                       # Table walker walks requested
system.cpu.dtb.walker.requestOrigin_Requested::Data            0                       # Table walker requests started/completed, data/inst
system.cpu.dtb.walker.requestOrigin_Requested::Inst            0                       # Table walker requests started/completed, data/inst
system.cpu.dtb.walker.requestOrigin_Requested::total            0                       # Table walker requests started/completed, data/inst
system.cpu.dtb.walker.requestOrigin_Completed::Data            0                       # Table walker requests started/completed, data/inst
system.cpu.dtb.walker.requestOrigin_Completed::Inst            0                       # Table walker requests started/completed, data/inst
system.cpu.dtb.walker.requestOrigin_Completed::total            0                       # Table walker requests started/completed, data/inst
system.cpu.dtb.walker.requestOrigin::total            0                       # Table walker requests started/completed, data/inst
system.cpu.dtb.walker.power_state.pwrStateResidencyTicks::UNDEFINED   7477430000                       # Cumulative time (in ticks) in various power states
system.cpu.fetch.icacheStallCycles            3808432                       # Number of cycles fetch is stalled on an Icache miss
system.cpu.fetch.insts                       26523609                       # Number of instructions fetch has processed
system.cpu.fetch.branches                     6909181                       # Number of branches that fetch encountered
system.cpu.fetch.predictedBranches            4200230                       # Number of branches that fetch has predicted taken
system.cpu.fetch.cycles                      10831925                       # Number of cycles fetch has run and was not squashing or blocked
system.cpu.fetch.squashCycles                  529974                       # Number of cycles fetch has spent squashing
system.cpu.fetch.miscStallCycles                   24                       # Number of cycles fetch has spent waiting on interrupts,or bad addresses, or out of MSHRs
system.cpu.fetch.pendingTrapStallCycles           153                       # Number of stall cycles due to pending traps
system.cpu.fetch.icacheWaitRetryStallCycles           66                       # Number of stall cycles due to full MSHR
system.cpu.fetch.cacheLines                   3640241                       # Number of cache lines fetched
system.cpu.fetch.icacheSquashes                 82443                       # Number of outstanding Icache misses that were squashed
system.cpu.fetch.nisnDist::samples           14905587                       # Number of instructions fetched each cycle (Total)
system.cpu.fetch.nisnDist::mean              2.292749                       # Number of instructions fetched each cycle (Total)
system.cpu.fetch.nisnDist::stdev             3.140359                       # Number of instructions fetched each cycle (Total)
system.cpu.fetch.nisnDist::underflows               0      0.00%      0.00% # Number of instructions fetched each cycle (Total)
system.cpu.fetch.nisnDist::0                  8550664     57.37%     57.37% # Number of instructions fetched each cycle (Total)
system.cpu.fetch.nisnDist::1                   392554      2.63%     60.00% # Number of instructions fetched each cycle (Total)
system.cpu.fetch.nisnDist::2                   922336      6.19%     66.19% # Number of instructions fetched each cycle (Total)
system.cpu.fetch.nisnDist::3                   444713      2.98%     69.17% # Number of instructions fetched each cycle (Total)
system.cpu.fetch.nisnDist::4                  1072166      7.19%     76.36% # Number of instructions fetched each cycle (Total)
system.cpu.fetch.nisnDist::5                   348736      2.34%     78.70% # Number of instructions fetched each cycle (Total)
system.cpu.fetch.nisnDist::6                   297481      2.00%     80.70% # Number of instructions fetched each cycle (Total)
system.cpu.fetch.nisnDist::7                   229319      1.54%     82.24% # Number of instructions fetched each cycle (Total)
system.cpu.fetch.nisnDist::8                  2647618     17.76%    100.00% # Number of instructions fetched each cycle (Total)
system.cpu.fetch.nisnDist::overflows                0      0.00%    100.00% # Number of instructions fetched each cycle (Total)
system.cpu.fetch.nisnDist::min_value                0                       # Number of instructions fetched each cycle (Total)
system.cpu.fetch.nisnDist::max_value                8                       # Number of instructions fetched each cycle (Total)
system.cpu.fetch.nisnDist::total             14905587                       # Number of instructions fetched each cycle (Total)
system.cpu.fetch.branchRate                  0.462002                       # Number of branch fetches per cycle
system.cpu.fetch.rate                        1.773578                       # Number of inst fetches per cycle
system.cpu.icache.demand_hits::.cpu.inst      3639210                       # number of demand (read+write) hits
system.cpu.icache.demand_hits::total          3639210                       # number of demand (read+write) hits
system.cpu.icache.overall_hits::.cpu.inst      3639210                       # number of overall hits
system.cpu.icache.overall_hits::total         3639210                       # number of overall hits
system.cpu.icache.demand_misses::.cpu.inst         1031                       # number of demand (read+write) misses
system.cpu.icache.demand_misses::total           1031                       # number of demand (read+write) misses
system.cpu.icache.overall_misses::.cpu.inst         1031                       # number of overall misses
system.cpu.icache.overall_misses::total          1031                       # number of overall misses
system.cpu.icache.demand_miss_latency::.cpu.inst     70254500                       # number of demand (read+write) miss cycles
system.cpu.icache.demand_miss_latency::total     70254500                       # number of demand (read+write) miss cycles
system.cpu.icache.overall_miss_latency::.cpu.inst     70254500                       # number of overall miss cycles
system.cpu.icache.overall_miss_latency::total     70254500                       # number of overall miss cycles
system.cpu.icache.demand_accesses::.cpu.inst      3640241                       # number of demand (read+write) accesses
system.cpu.icache.demand_accesses::total      3640241                       # number of demand (read+write) accesses
system.cpu.icache.overall_accesses::.cpu.inst      3640241                       # number of overall (read+write) accesses
system.cpu.icache.overall_accesses::total      3640241                       # number of overall (read+write) accesses
system.cpu.icache.demand_miss_rate::.cpu.inst     0.000283                       # miss rate for demand accesses
system.cpu.icache.demand_miss_rate::total     0.000283                       # miss rate for demand accesses
system.cpu.icache.overall_miss_rate::.cpu.inst     0.000283                       # miss rate for overall accesses
system.cpu.icache.overall_miss_rate::total     0.000283                       # miss rate for overall accesses
system.cpu.icache.demand_avg_miss_latency::.cpu.inst 68142.095053                       # average overall miss latency
system.cpu.icache.demand_avg_miss_latency::total 68142.095053                       # average overall miss latency
system.cpu.icache.overall_avg_miss_latency::.cpu.inst 68142.095053                       # average overall miss latency
system.cpu.icache.overall_avg_miss_latency::total 68142.095053                       # average overall miss latency
system.cpu.icache.blocked_cycles::no_mshrs          507                       # number of cycles access was blocked
system.cpu.icache.blocked_cycles::no_targets            0                       # number of cycles access was blocked
system.cpu.icache.blocked::no_mshrs                 7                       # number of cycles access was blocked
system.cpu.icache.blocked::no_targets               0                       # number of cycles access was blocked
system.cpu.icache.avg_blocked_cycles::no_mshrs    72.428571                       # average number of cycles each access was blocked
system.cpu.icache.avg_blocked_cycles::no_targets          nan                       # average number of cycles each access was blocked
system.cpu.icache.writebacks::.writebacks          295                       # number of writebacks
system.cpu.icache.writebacks::total               295                       # number of writebacks
system.cpu.icache.demand_mshr_hits::.cpu.inst          282                       # number of demand (read+write) MSHR hits
system.cpu.icache.demand_mshr_hits::total          282                       # number of demand (read+write) MSHR hits
system.cpu.icache.overall_mshr_hits::.cpu.inst          282                       # number of overall MSHR hits
system.cpu.icache.overall_mshr_hits::total          282                       # number of overall MSHR hits
system.cpu.icache.demand_mshr_misses::.cpu.inst          749                       # number of demand (read+write) MSHR misses
system.cpu.icache.demand_mshr_misses::total          749                       # number of demand (read+write) MSHR misses
system.cpu.icache.overall_mshr_misses::.cpu.inst          749                       # number of overall MSHR misses
system.cpu.icache.overall_mshr_misses::total          749                       # number of overall MSHR misses
system.cpu.icache.demand_mshr_miss_latency::.cpu.inst     53526500                       # number of demand (read+write) MSHR miss cycles
system.cpu.icache.demand_mshr_miss_latency::total     53526500                       # number of demand (read+write) MSHR miss cycles
system.cpu.icache.overall_mshr_miss_latency::.cpu.inst     53526500                       # number of overall MSHR miss cycles
system.cpu.icache.overall_mshr_miss_latency::total     53526500                       # number of overall MSHR miss cycles
system.cpu.icache.demand_mshr_miss_rate::.cpu.inst     0.000206                       # mshr miss rate for demand accesses
system.cpu.icache.demand_mshr_miss_rate::total     0.000206                       # mshr miss rate for demand accesses
system.cpu.icache.overall_mshr_miss_rate::.cpu.inst     0.000206                       # mshr miss rate for overall accesses
system.cpu.icache.overall_mshr_miss_rate::total     0.000206                       # mshr miss rate for overall accesses
system.cpu.icache.demand_avg_mshr_miss_latency::.cpu.inst 71463.951936                       # average overall mshr miss latency
system.cpu.icache.demand_avg_mshr_miss_latency::total 71463.951936                       # average overall mshr miss latency
system.cpu.icache.overall_avg_mshr_miss_latency::.cpu.inst 71463.951936                       # average overall mshr miss latency
system.cpu.icache.overall_avg_mshr_miss_latency::total 71463.951936                       # average overall mshr miss latency
system.cpu.icache.replacements                    295                       # number of replacements
system.cpu.icache.ReadReq_hits::.cpu.inst      3639210                       # number of ReadReq hits
system.cpu.icache.ReadReq_hits::total         3639210                       # number of ReadReq hits
system.cpu.icache.ReadReq_misses::.cpu.inst         1031                       # number of ReadReq misses
system.cpu.icache.ReadReq_misses::total          1031                       # number of ReadReq misses
system.cpu.icache.ReadReq_miss_latency::.cpu.inst     70254500                       # number of ReadReq miss cycles
system.cpu.icache.ReadReq_miss_latency::total     70254500                       # number of ReadReq miss cycles
system.cpu.icache.ReadReq_accesses::.cpu.inst      3640241                       # number of ReadReq accesses(hits+misses)
system.cpu.icache.ReadReq_accesses::total      3640241                       # number of ReadReq accesses(hits+misses)
system.cpu.icache.ReadReq_miss_rate::.cpu.inst     0.000283                       # miss rate for ReadReq accesses
system.cpu.icache.ReadReq_miss_rate::total     0.000283                       # miss rate for ReadReq accesses
system.cpu.icache.ReadReq_avg_miss_latency::.cpu.inst 68142.095053                       # average ReadReq miss latency
system.cpu.icache.ReadReq_avg_miss_latency::total 68142.095053                       # average ReadReq miss latency
system.cpu.icache.ReadReq_mshr_hits::.cpu.inst          282                       # number of ReadReq MSHR hits
system.cpu.icache.ReadReq_mshr_hits::total          282                       # number of ReadReq MSHR hits
system.cpu.icache.ReadReq_mshr_misses::.cpu.inst          749                       # number of ReadReq MSHR misses
system.cpu.icache.ReadReq_mshr_misses::total          749                       # number of ReadReq MSHR misses
system.cpu.icache.ReadReq_mshr_miss_latency::.cpu.inst     53526500                       # number of ReadReq MSHR miss cycles
system.cpu.icache.ReadReq_mshr_miss_latency::total     53526500                       # number of ReadReq MSHR miss cycles
system.cpu.icache.ReadReq_mshr_miss_rate::.cpu.inst     0.000206                       # mshr miss rate for ReadReq accesses
system.cpu.icache.ReadReq_mshr_miss_rate::total     0.000206                       # mshr miss rate for ReadReq accesses
system.cpu.icache.ReadReq_avg_mshr_miss_latency::.cpu.inst 71463.951936                       # average ReadReq mshr miss latency
system.cpu.icache.ReadReq_avg_mshr_miss_latency::total 71463.951936                       # average ReadReq mshr miss latency
system.cpu.icache.power_state.pwrStateResidencyTicks::UNDEFINED   7477430000                       # Cumulative time (in ticks) in various power states
system.cpu.icache.tags.tagsinuse           416.573990                       # Cycle average of tags in use
system.cpu.icache.tags.total_refs             3639959                       # Total number of references to valid blocks.
system.cpu.icache.tags.sampled_refs               749                       # Sample count of references to valid blocks.
system.cpu.icache.tags.avg_refs           4859.758344                       # Average number of references to valid blocks.
system.cpu.icache.tags.warmup_cycle             87500                       # Cycle when the warmup percentage was hit.
system.cpu.icache.tags.occ_blocks::.cpu.inst   416.573990                       # Average occupied blocks per requestor
system.cpu.icache.tags.occ_percent::.cpu.inst     0.813621                       # Average percentage of cache occupancy
system.cpu.icache.tags.occ_percent::total     0.813621                       # Average percentage of cache occupancy
system.cpu.icache.tags.occ_task_id_blocks::1024          454                       # Occupied blocks per task id
system.cpu.icache.tags.age_task_id_blocks_1024::0           61                       # Occupied blocks per task id
system.cpu.icache.tags.age_task_id_blocks_1024::3          393                       # Occupied blocks per task id
system.cpu.icache.tags.occ_task_id_percent::1024     0.886719                       # Percentage of cache occupancy per task id
system.cpu.icache.tags.tag_accesses           7281231                       # Number of tag accesses
system.cpu.icache.tags.data_accesses          7281231                       # Number of data accesses
system.cpu.icache.tags.power_state.pwrStateResidencyTicks::UNDEFINED   7477430000                       # Cumulative time (in ticks) in various power states
system.cpu.itb.instHits                             0                       # ITB inst hits
system.cpu.itb.instMisses                           0                       # ITB inst misses
system.cpu.itb.readHits                             0                       # DTB read hits
system.cpu.itb.readMisses                           0                       # DTB read misses
system.cpu.itb.writeHits                            0                       # DTB write hits
system.cpu.itb.writeMisses                          0                       # DTB write misses
system.cpu.itb.inserts                              0                       # Number of times an entry is inserted into the TLB
system.cpu.itb.flushTlb                             0                       # Number of times complete TLB was flushed
system.cpu.itb.flushTlbMva                          0                       # Number of times TLB was flushed by MVA
system.cpu.itb.flushTlbMvaAsid                      0                       # Number of times TLB was flushed by MVA & ASID
system.cpu.itb.flushTlbAsid                         0                       # Number of times TLB was flushed by ASID
system.cpu.itb.flushedEntries                       0                       # Number of entries that have been flushed from TLB
system.cpu.itb.alignFaults                          0                       # Number of TLB faults due to alignment restrictions
system.cpu.itb.prefetchFaults                       0                       # Number of TLB faults due to prefetch
system.cpu.itb.domainFaults                         0                       # Number of TLB faults due to domain restrictions
system.cpu.itb.permsFaults                          0                       # Number of TLB faults due to permissions restrictions
system.cpu.itb.readAccesses                         0                       # DTB read accesses
system.cpu.itb.writeAccesses                        0                       # DTB write accesses
system.cpu.itb.instAccesses                         0                       # ITB inst accesses
system.cpu.itb.hits                                 0                       # Total TLB (inst and data) hits
system.cpu.itb.misses                               0                       # Total TLB (inst and data) misses
system.cpu.itb.accesses                             0                       # Total TLB (inst and data) accesses
system.cpu.itb.stage2_mmu.stage2_tlb.instHits            0                       # ITB inst hits
system.cpu.itb.stage2_mmu.stage2_tlb.instMisses            0                       # ITB inst misses
system.cpu.itb.stage2_mmu.stage2_tlb.readHits            0                       # DTB read hits
system.cpu.itb.stage2_mmu.stage2_tlb.readMisses            0                       # DTB read misses
system.cpu.itb.stage2_mmu.stage2_tlb.writeHits            0                       # DTB write hits
system.cpu.itb.stage2_mmu.stage2_tlb.writeMisses            0                       # DTB write misses
system.cpu.itb.stage2_mmu.stage2_tlb.inserts            0                       # Number of times an entry is inserted into the TLB
system.cpu.itb.stage2_mmu.stage2_tlb.flushTlb            0                       # Number of times complete TLB was flushed
system.cpu.itb.stage2_mmu.stage2_tlb.flushTlbMva            0                       # Number of times TLB was flushed by MVA
system.cpu.itb.stage2_mmu.stage2_tlb.flushTlbMvaAsid            0                       # Number of times TLB was flushed by MVA & ASID
system.cpu.itb.stage2_mmu.stage2_tlb.flushTlbAsid            0                       # Number of times TLB was flushed by ASID
system.cpu.itb.stage2_mmu.stage2_tlb.flushedEntries            0                       # Number of entries that have been flushed from TLB
system.cpu.itb.stage2_mmu.stage2_tlb.alignFaults            0                       # Number of TLB faults due to alignment restrictions
system.cpu.itb.stage2_mmu.stage2_tlb.prefetchFaults            0                       # Number of TLB faults due to prefetch
[...]
system.mem_ctrls.dram.bw_read::total        190824922                       # Total read bandwidth from this memory (bytes/s)
system.mem_ctrls.dram.bw_inst_read::.cpu.inst      5554850                       # Instruction read bandwidth from this memory (bytes/s)
system.mem_ctrls.dram.bw_inst_read::total      5554850                       # Instruction read bandwidth from this memory (bytes/s)
system.mem_ctrls.dram.bw_total::.cpu.inst      5554850                       # Total bandwidth to/from this memory (bytes/s)
system.mem_ctrls.dram.bw_total::.cpu.data    185270073                       # Total bandwidth to/from this memory (bytes/s)
system.mem_ctrls.dram.bw_total::total       190824922                       # Total bandwidth to/from this memory (bytes/s)
system.mem_ctrls.dram.readBursts                22295                       # Number of DRAM read bursts
system.mem_ctrls.dram.writeBursts                   0                       # Number of DRAM write bursts
system.mem_ctrls.dram.perBankRdBursts::0         1543                       # Per bank write bursts
system.mem_ctrls.dram.perBankRdBursts::1         1423                       # Per bank write bursts
system.mem_ctrls.dram.perBankRdBursts::2         1439                       # Per bank write bursts
system.mem_ctrls.dram.perBankRdBursts::3         1416                       # Per bank write bursts
system.mem_ctrls.dram.perBankRdBursts::4         1303                       # Per bank write bursts
system.mem_ctrls.dram.perBankRdBursts::5         1293                       # Per bank write bursts
system.mem_ctrls.dram.perBankRdBursts::6         1331                       # Per bank write bursts
system.mem_ctrls.dram.perBankRdBursts::7         1311                       # Per bank write bursts
system.mem_ctrls.dram.perBankRdBursts::8         1249                       # Per bank write bursts
system.mem_ctrls.dram.perBankRdBursts::9         1362                       # Per bank write bursts
system.mem_ctrls.dram.perBankRdBursts::10         1278                       # Per bank write bursts
system.mem_ctrls.dram.perBankRdBursts::11         1377                       # Per bank write bursts
system.mem_ctrls.dram.perBankRdBursts::12         1516                       # Per bank write bursts
system.mem_ctrls.dram.perBankRdBursts::13         1494                       # Per bank write bursts
system.mem_ctrls.dram.perBankRdBursts::14         1457                       # Per bank write bursts
system.mem_ctrls.dram.perBankRdBursts::15         1503                       # Per bank write bursts
system.mem_ctrls.dram.perBankWrBursts::0            0                       # Per bank write bursts
system.mem_ctrls.dram.perBankWrBursts::1            0                       # Per bank write bursts
system.mem_ctrls.dram.perBankWrBursts::2            0                       # Per bank write bursts
system.mem_ctrls.dram.perBankWrBursts::3            0                       # Per bank write bursts
system.mem_ctrls.dram.perBankWrBursts::4            0                       # Per bank write bursts
system.mem_ctrls.dram.perBankWrBursts::5            0                       # Per bank write bursts
system.mem_ctrls.dram.perBankWrBursts::6            0                       # Per bank write bursts
system.mem_ctrls.dram.perBankWrBursts::7            0                       # Per bank write bursts
system.mem_ctrls.dram.perBankWrBursts::8            0                       # Per bank write bursts
system.mem_ctrls.dram.perBankWrBursts::9            0                       # Per bank write bursts
system.mem_ctrls.dram.perBankWrBursts::10            0                       # Per bank write bursts
system.mem_ctrls.dram.perBankWrBursts::11            0                       # Per bank write bursts
system.mem_ctrls.dram.perBankWrBursts::12            0                       # Per bank write bursts
system.mem_ctrls.dram.perBankWrBursts::13            0                       # Per bank write bursts
system.mem_ctrls.dram.perBankWrBursts::14            0                       # Per bank write bursts
system.mem_ctrls.dram.perBankWrBursts::15            0                       # Per bank write bursts
system.mem_ctrls.dram.totQLat               332097500                       # Total ticks spent queuing
system.mem_ctrls.dram.totBusLat             111475000                       # Total ticks spent in databus transfers
system.mem_ctrls.dram.totMemAccLat          750128750                       # Total ticks spent from burst creation until serviced by the DRAM
system.mem_ctrls.dram.avgQLat                14895.60                       # Average queueing delay per DRAM burst
system.mem_ctrls.dram.avgBusLat               5000.00                       # Average bus latency per DRAM burst
system.mem_ctrls.dram.avgMemAccLat           33645.60                       # Average memory access latency per DRAM burst
system.mem_ctrls.dram.readRowHits               11867                       # Number of row buffer hits during reads
system.mem_ctrls.dram.writeRowHits                  0                       # Number of row buffer hits during writes
system.mem_ctrls.dram.readRowHitRate            53.23                       # Row buffer hit rate for reads
system.mem_ctrls.dram.writeRowHitRate             nan                       # Row buffer hit rate for writes
system.mem_ctrls.dram.bytesPerActivate::samples        10421                       # Bytes accessed per row activation
system.mem_ctrls.dram.bytesPerActivate::mean   136.819115                       # Bytes accessed per row activation
system.mem_ctrls.dram.bytesPerActivate::gmean    84.890369                       # Bytes accessed per row activation
system.mem_ctrls.dram.bytesPerActivate::stdev   227.070263                       # Bytes accessed per row activation
system.mem_ctrls.dram.bytesPerActivate::0-127         8619     82.71%     82.71% # Bytes accessed per row activation
system.mem_ctrls.dram.bytesPerActivate::128-255          870      8.35%     91.06% # Bytes accessed per row activation
system.mem_ctrls.dram.bytesPerActivate::256-383          100      0.96%     92.02% # Bytes accessed per row activation
system.mem_ctrls.dram.bytesPerActivate::384-511           64      0.61%     92.63% # Bytes accessed per row activation
system.mem_ctrls.dram.bytesPerActivate::512-639           66      0.63%     93.26% # Bytes accessed per row activation
system.mem_ctrls.dram.bytesPerActivate::640-767          115      1.10%     94.37% # Bytes accessed per row activation
system.mem_ctrls.dram.bytesPerActivate::768-895           42      0.40%     94.77% # Bytes accessed per row activation
system.mem_ctrls.dram.bytesPerActivate::896-1023           39      0.37%     95.14% # Bytes accessed per row activation
system.mem_ctrls.dram.bytesPerActivate::1024-1151          506      4.86%    100.00% # Bytes accessed per row activation
system.mem_ctrls.dram.bytesPerActivate::total        10421                       # Bytes accessed per row activation
system.mem_ctrls.dram.bytesRead               1426880                       # Total number of bytes read from DRAM
system.mem_ctrls.dram.bytesWritten                  0                       # Total number of bytes written to DRAM
system.mem_ctrls.dram.avgRdBW              190.824922                       # Average DRAM read bandwidth in MiBytes/s
system.mem_ctrls.dram.avgWrBW                       0                       # Average DRAM write bandwidth in MiBytes/s
system.mem_ctrls.dram.peakBW                 12800.00                       # Theoretical peak bandwidth in MiByte/s
system.mem_ctrls.dram.busUtil                    1.49                       # Data bus utilization in percentage
system.mem_ctrls.dram.busUtilRead                1.49                       # Data bus utilization in percentage for reads
system.mem_ctrls.dram.busUtilWrite               0.00                       # Data bus utilization in percentage for writes
system.mem_ctrls.dram.pageHitRate               53.23                       # Row buffer hit rate, read and write combined
system.mem_ctrls.dram.power_state.pwrStateResidencyTicks::UNDEFINED   7477430000                       # Cumulative time (in ticks) in various power states
system.mem_ctrls.dram.rank0.actEnergy        37692060                       # Energy for activate commands per rank (pJ)
system.mem_ctrls.dram.rank0.preEnergy        20022420                       # Energy for precharge commands per rank (pJ)
system.mem_ctrls.dram.rank0.readEnergy       78961260                       # Energy for read commands per rank (pJ)
system.mem_ctrls.dram.rank0.writeEnergy             0                       # Energy for write commands per rank (pJ)
system.mem_ctrls.dram.rank0.refreshEnergy 590054400.000000                       # Energy for refresh commands per rank (pJ)
system.mem_ctrls.dram.rank0.actBackEnergy   1159501980                       # Energy for active background per rank (pJ)
system.mem_ctrls.dram.rank0.preBackEnergy   1894910400                       # Energy for precharge background per rank (pJ)
system.mem_ctrls.dram.rank0.actPowerDownEnergy            0                       # Energy for active power-down per rank (pJ)
system.mem_ctrls.dram.rank0.prePowerDownEnergy            0                       # Energy for precharge power-down per rank (pJ)
system.mem_ctrls.dram.rank0.selfRefreshEnergy            0                       # Energy for self refresh per rank (pJ)
system.mem_ctrls.dram.rank0.totalEnergy    3781142520                       # Total energy per rank (pJ)
system.mem_ctrls.dram.rank0.averagePower   505.674078                       # Core power per rank (mW)
system.mem_ctrls.dram.rank0.totalIdleTime            0                       # Total Idle time Per DRAM Rank
system.mem_ctrls.dram.rank0.pwrStateTime::IDLE   4914223750                       # Time in different power states
system.mem_ctrls.dram.rank0.pwrStateTime::REF    249600000                       # Time in different power states
system.mem_ctrls.dram.rank0.pwrStateTime::SREF            0                       # Time in different power states
system.mem_ctrls.dram.rank0.pwrStateTime::PRE_PDN            0                       # Time in different power states
system.mem_ctrls.dram.rank0.pwrStateTime::ACT   2313606250                       # Time in different power states
system.mem_ctrls.dram.rank0.pwrStateTime::ACT_PDN            0                       # Time in different power states
system.mem_ctrls.dram.rank1.actEnergy        36763860                       # Energy for activate commands per rank (pJ)
system.mem_ctrls.dram.rank1.preEnergy        19525275                       # Energy for precharge commands per rank (pJ)
system.mem_ctrls.dram.rank1.readEnergy       80225040                       # Energy for read commands per rank (pJ)
system.mem_ctrls.dram.rank1.writeEnergy             0                       # Energy for write commands per rank (pJ)
system.mem_ctrls.dram.rank1.refreshEnergy 590054400.000000                       # Energy for refresh commands per rank (pJ)
system.mem_ctrls.dram.rank1.actBackEnergy   1181918940                       # Energy for active background per rank (pJ)
system.mem_ctrls.dram.rank1.preBackEnergy   1876032960                       # Energy for precharge background per rank (pJ)
system.mem_ctrls.dram.rank1.actPowerDownEnergy            0                       # Energy for active power-down per rank (pJ)
system.mem_ctrls.dram.rank1.prePowerDownEnergy            0                       # Energy for precharge power-down per rank (pJ)
system.mem_ctrls.dram.rank1.selfRefreshEnergy            0                       # Energy for self refresh per rank (pJ)
system.mem_ctrls.dram.rank1.totalEnergy    3784520475                       # Total energy per rank (pJ)
system.mem_ctrls.dram.rank1.averagePower   506.125831                       # Core power per rank (mW)
system.mem_ctrls.dram.rank1.totalIdleTime            0                       # Total Idle time Per DRAM Rank
system.mem_ctrls.dram.rank1.pwrStateTime::IDLE   4864718750                       # Time in different power states
system.mem_ctrls.dram.rank1.pwrStateTime::REF    249600000                       # Time in different power states
system.mem_ctrls.dram.rank1.pwrStateTime::SREF            0                       # Time in different power states
system.mem_ctrls.dram.rank1.pwrStateTime::PRE_PDN            0                       # Time in different power states
system.mem_ctrls.dram.rank1.pwrStateTime::ACT   2363111250                       # Time in different power states
system.mem_ctrls.dram.rank1.pwrStateTime::ACT_PDN            0                       # Time in different power states
system.mem_ctrls.power_state.pwrStateResidencyTicks::UNDEFINED   7477430000                       # Cumulative time (in ticks) in various power states
system.membus.trans_dist::ReadResp              10953                       # Transaction distribution
system.membus.trans_dist::ReadExReq             11342                       # Transaction distribution
system.membus.trans_dist::ReadExResp            11342                       # Transaction distribution
system.membus.trans_dist::ReadSharedReq         10953                       # Transaction distribution
system.membus.pkt_count_system.l2.mem_side_port::system.mem_ctrls.port        44590                       # Packet count per connected requestor and responder (bytes)
system.membus.pkt_count::total                  44590                       # Packet count per connected requestor and responder (bytes)
system.membus.pkt_size_system.l2.mem_side_port::system.mem_ctrls.port      1426880                       # Cumulative packet size per connected requestor and responder (bytes)
system.membus.pkt_size::total                 1426880                       # Cumulative packet size per connected requestor and responder (bytes)
system.membus.snoops                                0                       # Total snoops (count)
system.membus.snoopTraffic                          0                       # Total snoop traffic (bytes)
system.membus.snoop_fanout::samples             22295                       # Request fanout histogram
system.membus.snoop_fanout::mean                    0                       # Request fanout histogram
system.membus.snoop_fanout::stdev                   0                       # Request fanout histogram
system.membus.snoop_fanout::underflows              0      0.00%      0.00% # Request fanout histogram
system.membus.snoop_fanout::0                   22295    100.00%    100.00% # Request fanout histogram
system.membus.snoop_fanout::1                       0      0.00%    100.00% # Request fanout histogram
system.membus.snoop_fanout::overflows               0      0.00%    100.00% # Request fanout histogram
system.membus.snoop_fanout::min_value               0                       # Request fanout histogram
system.membus.snoop_fanout::max_value               0                       # Request fanout histogram
system.membus.snoop_fanout::total               22295                       # Request fanout histogram
system.membus.power_state.pwrStateResidencyTicks::UNDEFINED   7477430000                       # Cumulative time (in ticks) in various power states
system.membus.reqLayer0.occupancy            25805000                       # Layer occupancy (ticks)
system.membus.reqLayer0.utilization               0.3                       # Layer utilization (%)
system.membus.respLayer1.occupancy          121287250                       # Layer occupancy (ticks)
system.membus.respLayer1.utilization              1.6                       # Layer utilization (%)
system.tol2bus.trans_dist::ReadResp            105158                       # Transaction distribution
system.tol2bus.trans_dist::WritebackDirty       116538                       # Transaction distribution
system.tol2bus.trans_dist::WritebackClean          295                       # Transaction distribution
system.tol2bus.trans_dist::CleanEvict             725                       # Transaction distribution
system.tol2bus.trans_dist::ReadExReq            13877                       # Transaction distribution
system.tol2bus.trans_dist::ReadExResp           13877                       # Transaction distribution
system.tol2bus.trans_dist::ReadCleanReq           749                       # Transaction distribution
system.tol2bus.trans_dist::ReadSharedReq       104409                       # Transaction distribution
system.tol2bus.trans_dist::InvalidateReq            1                       # Transaction distribution
system.tol2bus.trans_dist::InvalidateResp            1                       # Transaction distribution
system.tol2bus.pkt_count_system.cpu.icache.mem_side_port::system.l2.cpu_side_port         1793                       # Packet count per connected requestor and responder (bytes)
system.tol2bus.pkt_count_system.cpu.dcache.mem_side_port::system.l2.cpu_side_port       353837                       # Packet count per connected requestor and responder (bytes)
system.tol2bus.pkt_count::total                355630                       # Packet count per connected requestor and responder (bytes)
system.tol2bus.pkt_size_system.cpu.icache.mem_side_port::system.l2.cpu_side_port        66816                       # Cumulative packet size per connected requestor and responder (bytes)
system.tol2bus.pkt_size_system.cpu.dcache.mem_side_port::system.l2.cpu_side_port     15028736                       # Cumulative packet size per connected requestor and responder (bytes)
system.tol2bus.pkt_size::total               15095552                       # Cumulative packet size per connected requestor and responder (bytes)
system.tol2bus.snoops                               0                       # Total snoops (count)
system.tol2bus.snoopTraffic                         0                       # Total snoop traffic (bytes)
system.tol2bus.snoop_fanout::samples           119036                       # Request fanout histogram
system.tol2bus.snoop_fanout::mean            0.000840                       # Request fanout histogram
system.tol2bus.snoop_fanout::stdev           0.028972                       # Request fanout histogram
system.tol2bus.snoop_fanout::underflows             0      0.00%      0.00% # Request fanout histogram
system.tol2bus.snoop_fanout::0                 118936     99.92%     99.92% # Request fanout histogram
system.tol2bus.snoop_fanout::1                    100      0.08%    100.00% # Request fanout histogram
system.tol2bus.snoop_fanout::2                      0      0.00%    100.00% # Request fanout histogram
system.tol2bus.snoop_fanout::overflows              0      0.00%    100.00% # Request fanout histogram
system.tol2bus.snoop_fanout::min_value              0                       # Request fanout histogram
system.tol2bus.snoop_fanout::max_value              1                       # Request fanout histogram
system.tol2bus.snoop_fanout::total             119036                       # Request fanout histogram
system.tol2bus.power_state.pwrStateResidencyTicks::UNDEFINED   7477430000                       # Cumulative time (in ticks) in various power states
system.tol2bus.reqLayer0.occupancy          235130000                       # Layer occupancy (ticks)
system.tol2bus.reqLayer0.utilization              3.1                       # Layer utilization (%)
system.tol2bus.respLayer0.occupancy           1124498                       # Layer occupancy (ticks)
system.tol2bus.respLayer0.utilization             0.0                       # Layer utilization (%)
system.tol2bus.respLayer1.occupancy         177434490                       # Layer occupancy (ticks)
system.tol2bus.respLayer1.utilization             2.4                       # Layer utilization (%)
system.voltage_domain.voltage                       1                       # Voltage in Volts

---------- End Simulation Statistics   ----------
