
---------- Begin Simulation Statistics ----------
final_tick                                10390907000                       # Number of ticks from beginning of simulation (restored from checkpoints and never reset)
host_inst_rate                                 179606                       # Simulator instruction rate (inst/s)
host_mem_usage                                 662004                       # Number of bytes of host memory used
host_op_rate                                   190494                       # Simulator op (including micro ops) rate (op/s)
host_seconds                                   232.96                       # Real time elapsed on the host
host_tick_rate                               44603350                       # Simulator tick rate (ticks/s)
sim_freq                                 1000000000000                       # Frequency of simulated ticks
sim_insts                                    41841385                       # Number of instructions simulated
sim_ops                                      44377998                       # Number of ops (including micro ops) simulated
sim_seconds                                  0.010391                       # Number of seconds simulated
sim_ticks                                 10390907000                       # Number of ticks simulated
system.cpu.cc_regfile_reads                 163083128                       # number of cc regfile reads
system.cpu.cc_regfile_writes                 29003043                       # number of cc regfile writes
system.cpu.committedInsts                    41841385                       # Number of Instructions Simulated
system.cpu.committedOps                      44377998                       # Number of Ops (including micro ops) Simulated
system.cpu.cpi                               0.496681                       # CPI: Cycles Per Instruction
system.cpu.cpi_total                         0.496681                       # CPI: Total CPI of All Threads
system.cpu.idleCycles                           48106                       # Total number of cycles that the CPU has spent unscheduled due to idling
system.cpu.iew.branchMispredicts               118240                       # Number of branch mispredicts detected at execute
system.cpu.iew.exec_branches                 10236528                       # Number of branches executed
system.cpu.iew.exec_nop                             0                       # number of nop insts executed
system.cpu.iew.exec_rate                     2.179594                       # Inst execution rate
system.cpu.iew.exec_refs                     14082190                       # number of memory reference insts executed
system.cpu.iew.exec_stores                    4893810                       # Number of stores executed
system.cpu.iew.exec_swp                             0                       # number of swp insts executed
system.cpu.iew.iewBlockCycles                  190942                       # Number of cycles IEW is blocking
system.cpu.iew.iewDispLoadInsts               9332565                       # Number of dispatched load instructions
system.cpu.iew.iewDispNonSpecInsts              21857                       # Number of dispatched non-speculative instructions
system.cpu.iew.iewDispSquashedInsts            226620                       # Number of squashed instructions skipped by dispatch
system.cpu.iew.iewDispStoreInsts              5002312                       # Number of dispatched store instructions
system.cpu.iew.iewDispatchedInsts            46169837                       # Number of instructions dispatched to IQ
system.cpu.iew.iewExecLoadInsts               9188380                       # Number of load instructions executed
system.cpu.iew.iewExecSquashedInsts            127332                       # Number of squashed instructions skipped in execute
system.cpu.iew.iewExecutedInsts              45295913                       # Number of executed instructions
system.cpu.iew.iewIQFullEvents                   2011                       # Number of times the IQ has become full, causing a stall
system.cpu.iew.iewIdleCycles                        0                       # Number of cycles IEW is idle
system.cpu.iew.iewLSQFullEvents                   406                       # Number of times the LSQ has become full, causing a stall
system.cpu.iew.iewSquashCycles                 115885                       # Number of cycles IEW is squashing
system.cpu.iew.iewUnblockCycles                  2964                       # Number of cycles IEW is unblocking
system.cpu.iew.memOrderViolationEvents            637                       # Number of memory order violations
system.cpu.iew.predictedNotTakenIncorrect        21606                       # Number of branches that were predicted not taken incorrectly
system.cpu.iew.predictedTakenIncorrect          96634                       # Number of branches that were predicted taken incorrectly
system.cpu.iew.wb_consumers                  37800603                       # num instructions consuming a value
system.cpu.iew.wb_count                      45109434                       # cumulative count of insts written-back
system.cpu.iew.wb_fanout                     0.628212                       # average fanout of values written-back
system.cpu.iew.wb_producers                  23746789                       # num instructions producing a value
system.cpu.iew.wb_rate                       2.170621                       # insts written-back per cycle
system.cpu.iew.wb_sent                       45186184                       # cumulative count of insts sent to commit
system.cpu.int_regfile_reads                 46264736                       # number of integer regfile reads
system.cpu.int_regfile_writes                20920548                       # number of integer regfile writes
system.cpu.ipc                               2.013365                       # IPC: Instructions Per Cycle
system.cpu.ipc_total                         2.013365                       # IPC: Total IPC of All Threads
system.cpu.iq.FU_type_0::No_OpClass                34      0.00%      0.00% # Type of FU issued
system.cpu.iq.FU_type_0::IntAlu              31285984     68.88%     68.88% # Type of FU issued
system.cpu.iq.FU_type_0::IntMult                19484      0.04%     68.92% # Type of FU issued
system.cpu.iq.FU_type_0::IntDiv                     0      0.00%     68.92% # Type of FU issued
system.cpu.iq.FU_type_0::FloatAdd                   0      0.00%     68.92% # Type of FU issued
system.cpu.iq.FU_type_0::FloatCmp                   0      0.00%     68.92% # Type of FU issued
system.cpu.iq.FU_type_0::FloatCvt                   0      0.00%     68.92% # Type of FU issued
system.cpu.iq.FU_type_0::FloatMult                  0      0.00%     68.92% # Type of FU issued
system.cpu.iq.FU_type_0::FloatMultAcc               0      0.00%     68.92% # Type of FU issued
system.cpu.iq.FU_type_0::FloatDiv                   0      0.00%     68.92% # Type of FU issued
system.cpu.iq.FU_type_0::FloatMisc                  0      0.00%     68.92% # Type of FU issued
system.cpu.iq.FU_type_0::FloatSqrt                  0      0.00%     68.92% # Type of FU issued
system.cpu.iq.FU_type_0::SimdAdd                    0      0.00%     68.92% # Type of FU issued
system.cpu.iq.FU_type_0::SimdAddAcc                 0      0.00%     68.92% # Type of FU issued
system.cpu.iq.FU_type_0::SimdAlu                    0      0.00%     68.92% # Type of FU issued
system.cpu.iq.FU_type_0::SimdCmp                    0      0.00%     68.92% # Type of FU issued
system.cpu.iq.FU_type_0::SimdCvt                    0      0.00%     68.92% # Type of FU issued
system.cpu.iq.FU_type_0::SimdMisc                   0      0.00%     68.92% # Type of FU issued
system.cpu.iq.FU_type_0::SimdMult                   0      0.00%     68.92% # Type of FU issued
system.cpu.iq.FU_type_0::SimdMultAcc                0      0.00%     68.92% # Type of FU issued
system.cpu.iq.FU_type_0::SimdShift                  0      0.00%     68.92% # Type of FU issued
system.cpu.iq.FU_type_0::SimdShiftAcc               0      0.00%     68.92% # Type of FU issued
system.cpu.iq.FU_type_0::SimdDiv                    0      0.00%     68.92% # Type of FU issued
system.cpu.iq.FU_type_0::SimdSqrt                   0      0.00%     68.92% # Type of FU issued
system.cpu.iq.FU_type_0::SimdFloatAdd               0      0.00%     68.92% # Type of FU issued
system.cpu.iq.FU_type_0::SimdFloatAlu               0      0.00%     68.92% # Type of FU issued
system.cpu.iq.FU_type_0::SimdFloatCmp               0      0.00%     68.92% # Type of FU issued
system.cpu.iq.FU_type_0::SimdFloatCvt               0      0.00%     68.92% # Type of FU issued
system.cpu.iq.FU_type_0::SimdFloatDiv               0      0.00%     68.92% # Type of FU issued
system.cpu.iq.FU_type_0::SimdFloatMisc              0      0.00%     68.92% # Type of FU issued
system.cpu.iq.FU_type_0::SimdFloatMult              0      0.00%     68.92% # Type of FU issued
system.cpu.iq.FU_type_0::SimdFloatMultAcc            0      0.00%     68.92% # Type of FU issued
system.cpu.iq.FU_type_0::SimdFloatSqrt              0      0.00%     68.92% # Type of FU issued
system.cpu.iq.FU_type_0::SimdReduceAdd              0      0.00%     68.92% # Type of FU issued
system.cpu.iq.FU_type_0::SimdReduceAlu              0      0.00%     68.92% # Type of FU issued
system.cpu.iq.FU_type_0::SimdReduceCmp              0      0.00%     68.92% # Type of FU issued
system.cpu.iq.FU_type_0::SimdFloatReduceAdd            0      0.00%     68.92% # Type of FU issued
system.cpu.iq.FU_type_0::SimdFloatReduceCmp            0      0.00%     68.92% # Type of FU issued
system.cpu.iq.FU_type_0::SimdAes                    0      0.00%     68.92% # Type of FU issued
system.cpu.iq.FU_type_0::SimdAesMix                 0      0.00%     68.92% # Type of FU issued
system.cpu.iq.FU_type_0::SimdSha1Hash               0      0.00%     68.92% # Type of FU issued
system.cpu.iq.FU_type_0::SimdSha1Hash2              0      0.00%     68.92% # Type of FU issued
system.cpu.iq.FU_type_0::SimdSha256Hash             0      0.00%     68.92% # Type of FU issued
system.cpu.iq.FU_type_0::SimdSha256Hash2            0      0.00%     68.92% # Type of FU issued
system.cpu.iq.FU_type_0::SimdShaSigma2              0      0.00%     68.92% # Type of FU issued
system.cpu.iq.FU_type_0::SimdShaSigma3              0      0.00%     68.92% # Type of FU issued
system.cpu.iq.FU_type_0::SimdPredAlu                0      0.00%     68.92% # Type of FU issued
system.cpu.iq.FU_type_0::MemRead              9209060     20.27%     89.19% # Type of FU issued
system.cpu.iq.FU_type_0::MemWrite             4908683     10.81%    100.00% # Type of FU issued
system.cpu.iq.FU_type_0::FloatMemRead               0      0.00%    100.00% # Type of FU issued
system.cpu.iq.FU_type_0::FloatMemWrite              0      0.00%    100.00% # Type of FU issued
system.cpu.iq.FU_type_0::IprAccess                  0      0.00%    100.00% # Type of FU issued
system.cpu.iq.FU_type_0::InstPrefetch               0      0.00%    100.00% # Type of FU issued
system.cpu.iq.FU_type_0::total               45423245                       # Type of FU issued
system.cpu.iq.fp_alu_accesses                       0                       # Number of floating point alu accesses
system.cpu.iq.fp_inst_queue_reads                   0                       # Number of floating instruction queue reads
system.cpu.iq.fp_inst_queue_wakeup_accesses            0                       # Number of floating instruction queue wakeup accesses
system.cpu.iq.fp_inst_queue_writes                  0                       # Number of floating instruction queue writes
system.cpu.iq.fu_busy_cnt                      184493                       # FU busy when requested
system.cpu.iq.fu_busy_rate                   0.004062                       # FU busy rate (busy events/executed inst)
system.cpu.iq.fu_full::No_OpClass                   0      0.00%      0.00% # attempts to use FU when none available
system.cpu.iq.fu_full::IntAlu                    7719      4.18%      4.18% # attempts to use FU when none available
system.cpu.iq.fu_full::IntMult                      0      0.00%      4.18% # attempts to use FU when none available
system.cpu.iq.fu_full::IntDiv                       0      0.00%      4.18% # attempts to use FU when none available
system.cpu.iq.fu_full::FloatAdd                     0      0.00%      4.18% # attempts to use FU when none available
system.cpu.iq.fu_full::FloatCmp                     0      0.00%      4.18% # attempts to use FU when none available
system.cpu.iq.fu_full::FloatCvt                     0      0.00%      4.18% # attempts to use FU when none available
system.cpu.iq.fu_full::FloatMult                    0      0.00%      4.18% # attempts to use FU when none available
system.cpu.iq.fu_full::FloatMultAcc                 0      0.00%      4.18% # attempts to use FU when none available
system.cpu.iq.fu_full::FloatDiv                     0      0.00%      4.18% # attempts to use FU when none available
system.cpu.iq.fu_full::FloatMisc                    0      0.00%      4.18% # attempts to use FU when none available
system.cpu.iq.fu_full::FloatSqrt                    0      0.00%      4.18% # attempts to use FU when none available
system.cpu.iq.fu_full::SimdAdd                      0      0.00%      4.18% # attempts to use FU when none available
system.cpu.iq.fu_full::SimdAddAcc                   0      0.00%      4.18% # attempts to use FU when none available
system.cpu.iq.fu_full::SimdAlu                      0      0.00%      4.18% # attempts to use FU when none available
system.cpu.iq.fu_full::SimdCmp                      0      0.00%      4.18% # attempts to use FU when none available
system.cpu.iq.fu_full::SimdCvt                      0      0.00%      4.18% # attempts to use FU when none available
system.cpu.iq.fu_full::SimdMisc                     0      0.00%      4.18% # attempts to use FU when none available
system.cpu.iq.fu_full::SimdMult                     0      0.00%      4.18% # attempts to use FU when none available
system.cpu.iq.fu_full::SimdMultAcc                  0      0.00%      4.18% # attempts to use FU when none available
system.cpu.iq.fu_full::SimdShift                    0      0.00%      4.18% # attempts to use FU when none available
system.cpu.iq.fu_full::SimdShiftAcc                 0      0.00%      4.18% # attempts to use FU when none available
system.cpu.iq.fu_full::SimdDiv                      0      0.00%      4.18% # attempts to use FU when none available
system.cpu.iq.fu_full::SimdSqrt                     0      0.00%      4.18% # attempts to use FU when none available
system.cpu.iq.fu_full::SimdFloatAdd                 0      0.00%      4.18% # attempts to use FU when none available
system.cpu.iq.fu_full::SimdFloatAlu                 0      0.00%      4.18% # attempts to use FU when none available
system.cpu.iq.fu_full::SimdFloatCmp                 0      0.00%      4.18% # attempts to use FU when none available
system.cpu.iq.fu_full::SimdFloatCvt                 0      0.00%      4.18% # attempts to use FU when none available
system.cpu.iq.fu_full::SimdFloatDiv                 0      0.00%      4.18% # attempts to use FU when none available
system.cpu.iq.fu_full::SimdFloatMisc                0      0.00%      4.18% # attempts to use FU when none available
system.cpu.iq.fu_full::SimdFloatMult                0      0.00%      4.18% # attempts to use FU when none available
system.cpu.iq.fu_full::SimdFloatMultAcc             0      0.00%      4.18% # attempts to use FU when none available
system.cpu.iq.fu_full::SimdFloatSqrt                0      0.00%      4.18% # attempts to use FU when none available
system.cpu.iq.fu_full::SimdReduceAdd                0      0.00%      4.18% # attempts to use FU when none available
system.cpu.iq.fu_full::SimdReduceAlu                0      0.00%      4.18% # attempts to use FU when none available
system.cpu.iq.fu_full::SimdReduceCmp                0      0.00%      4.18% # attempts to use FU when none available
system.cpu.iq.fu_full::SimdFloatReduceAdd            0      0.00%      4.18% # attempts to use FU when none available
system.cpu.iq.fu_full::SimdFloatReduceCmp            0      0.00%      4.18% # attempts to use FU when none available
system.cpu.iq.fu_full::SimdAes                      0      0.00%      4.18% # attempts to use FU when none available
system.cpu.iq.fu_full::SimdAesMix                   0      0.00%      4.18% # attempts to use FU when none available
system.cpu.iq.fu_full::SimdSha1Hash                 0      0.00%      4.18% # attempts to use FU when none available
system.cpu.iq.fu_full::SimdSha1Hash2                0      0.00%      4.18% # attempts to use FU when none available
system.cpu.iq.fu_full::SimdSha256Hash               0      0.00%      4.18% # attempts to use FU when none available
system.cpu.iq.fu_full::SimdSha256Hash2              0      0.00%      4.18% # attempts to use FU when none available
system.cpu.iq.fu_full::SimdShaSigma2                0      0.00%      4.18% # attempts to use FU when none available
system.cpu.iq.fu_full::SimdShaSigma3                0      0.00%      4.18% # attempts to use FU when none available
system.cpu.iq.fu_full::SimdPredAlu                  0      0.00%      4.18% # attempts to use FU when none available
system.cpu.iq.fu_full::MemRead                 112162     60.79%     64.98% # attempts to use FU when none available
system.cpu.iq.fu_full::MemWrite                 64612     35.02%    100.00% # attempts to use FU when none available
system.cpu.iq.fu_full::FloatMemRead                 0      0.00%    100.00% # attempts to use FU when none available
system.cpu.iq.fu_full::FloatMemWrite                0      0.00%    100.00% # attempts to use FU when none available
system.cpu.iq.fu_full::IprAccess                    0      0.00%    100.00% # attempts to use FU when none available
system.cpu.iq.fu_full::InstPrefetch                 0      0.00%    100.00% # attempts to use FU when none available
system.cpu.iq.int_alu_accesses               45607704                       # Number of integer alu accesses
system.cpu.iq.int_inst_queue_reads          111765886                       # Number of integer instruction queue reads
system.cpu.iq.int_inst_queue_wakeup_accesses     45109434                       # Number of integer instruction queue wakeup accesses
system.cpu.iq.int_inst_queue_writes          47962303                       # Number of integer instruction queue writes
system.cpu.iq.iqInstsAdded                   46127020                       # Number of instructions added to the IQ (excludes non-spec)
system.cpu.iq.iqInstsIssued                  45423245                       # Number of instructions issued
system.cpu.iq.iqNonSpecInstsAdded               42817                       # Number of non-speculative instructions added to the IQ
system.cpu.iq.iqSquashedInstsExamined         1791838                       # Number of squashed instructions iterated over during squash; mainly for profiling
system.cpu.iq.iqSquashedInstsIssued              1194                       # Number of squashed instructions issued
system.cpu.iq.iqSquashedNonSpecRemoved            658                       # Number of squashed non-spec instructions that were removed
system.cpu.iq.iqSquashedOperandsExamined      4454608                       # Number of squashed operands that are examined and possibly removed from graph
system.cpu.iq.issued_per_cycle::samples      20733709                       # Number of insts issued each cycle
system.cpu.iq.issued_per_cycle::mean         2.190792                       # Number of insts issued each cycle
system.cpu.iq.issued_per_cycle::stdev        2.255406                       # Number of insts issued each cycle
system.cpu.iq.issued_per_cycle::underflows            0      0.00%      0.00% # Number of insts issued each cycle
system.cpu.iq.issued_per_cycle::0             6766744     32.64%     32.64% # Number of insts issued each cycle
system.cpu.iq.issued_per_cycle::1             4000161     19.29%     51.93% # Number of insts issued each cycle
system.cpu.iq.issued_per_cycle::2             1484031      7.16%     59.09% # Number of insts issued each cycle
system.cpu.iq.issued_per_cycle::3             3398555     16.39%     75.48% # Number of insts issued each cycle
system.cpu.iq.issued_per_cycle::4              736002      3.55%     79.03% # Number of insts issued each cycle
system.cpu.iq.issued_per_cycle::5             2364362     11.40%     90.43% # Number of insts issued each cycle
system.cpu.iq.issued_per_cycle::6             1133341      5.47%     95.90% # Number of insts issued each cycle
system.cpu.iq.issued_per_cycle::7              110611      0.53%     96.43% # Number of insts issued each cycle
system.cpu.iq.issued_per_cycle::8              739902      3.57%    100.00% # Number of insts issued each cycle
system.cpu.iq.issued_per_cycle::overflows            0      0.00%    100.00% # Number of insts issued each cycle
system.cpu.iq.issued_per_cycle::min_value            0                       # Number of insts issued each cycle
system.cpu.iq.issued_per_cycle::max_value            8                       # Number of insts issued each cycle
system.cpu.iq.issued_per_cycle::total        20733709                       # Number of insts issued each cycle
system.cpu.iq.rate                           2.185721                       # Inst issue rate
system.cpu.iq.vec_alu_accesses                      0                       # Number of vector alu accesses
system.cpu.iq.vec_inst_queue_reads                  0                       # Number of vector instruction queue reads
system.cpu.iq.vec_inst_queue_wakeup_accesses            0                       # Number of vector instruction queue wakeup accesses
system.cpu.iq.vec_inst_queue_writes                 0                       # Number of vector instruction queue writes
system.cpu.memDep0.conflictingLoads           1751544                       # Number of conflicting loads.
system.cpu.memDep0.conflictingStores          1602512                       # Number of conflicting stores.
system.cpu.memDep0.insertedLoads              9332565                       # Number of loads inserted to the mem dependence unit.
system.cpu.memDep0.insertedStores             5002312                       # Number of stores inserted to the mem dependence unit.
system.cpu.misc_regfile_reads               107415358                       # number of misc regfile reads
system.cpu.misc_regfile_writes                  83841                       # number of misc regfile writes
system.cpu.numCycles                         20781815                       # number of cpu cycles simulated
system.cpu.numWorkItemsCompleted                    0                       # number of work items this cpu completed
system.cpu.numWorkItemsStarted                      0                       # number of work items this cpu started
system.cpu.timesIdled                             474                       # Number of times that the entire CPU went into an idle state and unscheduled itself
system.cpu.vec_regfile_reads                       16                       # number of vector regfile reads
system.cpu.workload.numSyscalls                   239                       # Number of system calls
system.membus.snoop_filter.hit_multi_requests            0                       # Number of requests hitting in the snoop filter with multiple (>1) holders of the requested data.
system.membus.snoop_filter.hit_multi_snoops            0                       # Number of snoops hitting in the snoop filter with multiple (>1) holders of the requested data.
system.membus.snoop_filter.hit_single_requests            0                       # Number of requests hitting in the snoop filter with a single holder of the requested data.
system.membus.snoop_filter.hit_single_snoops            0                       # Number of snoops hitting in the snoop filter with a single holder of the requested data.
system.membus.snoop_filter.tot_requests          1824                       # Total number of requests made to the snoop filter.
system.membus.snoop_filter.tot_snoops               0                       # Total number of snoops made to the snoop filter.
system.tol2bus.snoop_filter.hit_multi_requests          120                       # Number of requests hitting in the snoop filter with multiple (>1) holders of the requested data.
system.tol2bus.snoop_filter.hit_multi_snoops            0                       # Number of snoops hitting in the snoop filter with multiple (>1) holders of the requested data.
system.tol2bus.snoop_filter.hit_single_requests        22893                       # Number of requests hitting in the snoop filter with a single holder of the requested data.
system.tol2bus.snoop_filter.hit_single_snoops            0                       # Number of snoops hitting in the snoop filter with a single holder of the requested data.
system.tol2bus.snoop_filter.tot_requests        47077                       # Total number of requests made to the snoop filter.
system.tol2bus.snoop_filter.tot_snoops              0                       # Total number of snoops made to the snoop filter.
system.clk_domain.clock                          1000                       # Clock period in ticks
system.cpu.branchPred.lookups                10799727                       # Number of BP lookups
system.cpu.branchPred.condPredicted           9948115                       # Number of conditional branches predicted
system.cpu.branchPred.condIncorrect            115499                       # Number of conditional branches incorrect
system.cpu.branchPred.BTBLookups              5932150                       # Number of BTB lookups
system.cpu.branchPred.BTBHits                 5922800                       # Number of BTB hits
system.cpu.branchPred.BTBHitPct             99.842384                       # BTB Hit Percentage
system.cpu.branchPred.RASUsed                  253986                       # Number of times the RAS was used to get a target.
system.cpu.branchPred.RASIncorrect              31916                       # Number of incorrect RAS predictions.
system.cpu.branchPred.indirectLookups          182486                       # Number of indirect predictor lookups.
system.cpu.branchPred.indirectHits             171080                       # Number of indirect target hits.
system.cpu.branchPred.indirectMisses            11406                       # Number of indirect misses.
system.cpu.branchPred.indirectMispredicted          271                       # Number of mispredicted indirect branches.
system.cpu.commit.commitSquashedInsts         1791705                       # The number of squashed insts skipped by commit
system.cpu.commit.commitNonSpecStalls           42159                       # The number of times commit has been forced to stall to communicate backwards
system.cpu.commit.branchMispredicts            115092                       # The number of times a branch was mispredicted
system.cpu.commit.numCommittedDist::samples     20459895                       # Number of insts commited each cycle
system.cpu.commit.numCommittedDist::mean     2.169024                       # Number of insts commited each cycle
system.cpu.commit.numCommittedDist::stdev     2.404428                       # Number of insts commited each cycle
system.cpu.commit.numCommittedDist::underflows            0      0.00%      0.00% # Number of insts commited each cycle
system.cpu.commit.numCommittedDist::0         4295067     20.99%     20.99% # Number of insts commited each cycle
system.cpu.commit.numCommittedDist::1         6543095     31.98%     52.97% # Number of insts commited each cycle
system.cpu.commit.numCommittedDist::2         5158946     25.21%     78.19% # Number of insts commited each cycle
system.cpu.commit.numCommittedDist::3          288191      1.41%     79.60% # Number of insts commited each cycle
system.cpu.commit.numCommittedDist::4         1474004      7.20%     86.80% # Number of insts commited each cycle
system.cpu.commit.numCommittedDist::5          106653      0.52%     87.32% # Number of insts commited each cycle
system.cpu.commit.numCommittedDist::6          215693      1.05%     88.38% # Number of insts commited each cycle
system.cpu.commit.numCommittedDist::7           96969      0.47%     88.85% # Number of insts commited each cycle
system.cpu.commit.numCommittedDist::8         2281277     11.15%    100.00% # Number of insts commited each cycle
system.cpu.commit.numCommittedDist::overflows            0      0.00%    100.00% # Number of insts commited each cycle
system.cpu.commit.numCommittedDist::min_value            0                       # Number of insts commited each cycle
system.cpu.commit.numCommittedDist::max_value            8                       # Number of insts commited each cycle
system.cpu.commit.numCommittedDist::total     20459895                       # Number of insts commited each cycle
system.cpu.commit.instsCommitted             41841385                       # Number of instructions committed
system.cpu.commit.opsCommitted               44377998                       # Number of ops (including micro ops) committed
system.cpu.commit.memRefs                    13698011                       # Number of memory references committed
system.cpu.commit.loads                       8917926                       # Number of loads committed
system.cpu.commit.amos                              0                       # Number of atomic instructions committed
system.cpu.commit.membars                       20960                       # Number of memory barriers committed
system.cpu.commit.branches                   10103130                       # Number of branches committed
system.cpu.commit.vector                            0                       # Number of committed Vector instructions.
system.cpu.commit.floating                          0                       # Number of committed floating point instructions.
system.cpu.commit.integer                    34848669                       # Number of committed integer instructions.
system.cpu.commit.functionCalls                209370                       # Number of function calls committed.
system.cpu.commit.committedInstType_0::No_OpClass            0      0.00%      0.00% # Class of committed instruction
system.cpu.commit.committedInstType_0::IntAlu     30660519     69.09%     69.09% # Class of committed instruction
system.cpu.commit.committedInstType_0::IntMult        19468      0.04%     69.13% # Class of committed instruction
system.cpu.commit.committedInstType_0::IntDiv            0      0.00%     69.13% # Class of committed instruction
system.cpu.commit.committedInstType_0::FloatAdd            0      0.00%     69.13% # Class of committed instruction
system.cpu.commit.committedInstType_0::FloatCmp            0      0.00%     69.13% # Class of committed instruction
system.cpu.commit.committedInstType_0::FloatCvt            0      0.00%     69.13% # Class of committed instruction
system.cpu.commit.committedInstType_0::FloatMult            0      0.00%     69.13% # Class of committed instruction
system.cpu.commit.committedInstType_0::FloatMultAcc            0      0.00%     69.13% # Class of committed instruction
system.cpu.commit.committedInstType_0::FloatDiv            0      0.00%     69.13% # Class of committed instruction
system.cpu.commit.committedInstType_0::FloatMisc            0      0.00%     69.13% # Class of committed instruction
system.cpu.commit.committedInstType_0::FloatSqrt            0      0.00%     69.13% # Class of committed instruction
system.cpu.commit.committedInstType_0::SimdAdd            0      0.00%     69.13% # Class of committed instruction
system.cpu.commit.committedInstType_0::SimdAddAcc            0      0.00%     69.13% # Class of committed instruction
system.cpu.commit.committedInstType_0::SimdAlu            0      0.00%     69.13% # Class of committed instruction
system.cpu.commit.committedInstType_0::SimdCmp            0      0.00%     69.13% # Class of committed instruction
system.cpu.commit.committedInstType_0::SimdCvt            0      0.00%     69.13% # Class of committed instruction
system.cpu.commit.committedInstType_0::SimdMisc            0      0.00%     69.13% # Class of committed instruction
system.cpu.commit.committedInstType_0::SimdMult            0      0.00%     69.13% # Class of committed instruction
system.cpu.commit.committedInstType_0::SimdMultAcc            0      0.00%     69.13% # Class of committed instruction
system.cpu.commit.committedInstType_0::SimdShift            0      0.00%     69.13% # Class of committed instruction
system.cpu.commit.committedInstType_0::SimdShiftAcc            0      0.00%     69.13% # Class of committed instruction
system.cpu.commit.committedInstType_0::SimdDiv            0      0.00%     69.13% # Class of committed instruction
system.cpu.commit.committedInstType_0::SimdSqrt            0      0.00%     69.13% # Class of committed instruction
system.cpu.commit.committedInstType_0::SimdFloatAdd            0      0.00%     69.13% # Class of committed instruction
system.cpu.commit.committedInstType_0::SimdFloatAlu            0      0.00%     69.13% # Class of committed instruction
system.cpu.commit.committedInstType_0::SimdFloatCmp            0      0.00%     69.13% # Class of committed instruction
system.cpu.commit.committedInstType_0::SimdFloatCvt            0      0.00%     69.13% # Class of committed instruction
system.cpu.commit.committedInstType_0::SimdFloatDiv            0      0.00%     69.13% # Class of committed instruction
system.cpu.commit.committedInstType_0::SimdFloatMisc            0      0.00%     69.13% # Class of committed instruction
system.cpu.commit.committedInstType_0::SimdFloatMult            0      0.00%     69.13% # Class of committed instruction
system.cpu.commit.committedInstType_0::SimdFloatMultAcc            0      0.00%     69.13% # Class of committed instruction
system.cpu.commit.committedInstType_0::SimdFloatSqrt            0      0.00%     69.13% # Class of committed instruction
system.cpu.commit.committedInstType_0::SimdReduceAdd            0      0.00%     69.13% # Class of committed instruction
system.cpu.commit.committedInstType_0::SimdReduceAlu            0      0.00%     69.13% # Class of committed instruction
system.cpu.commit.committedInstType_0::SimdReduceCmp            0      0.00%     69.13% # Class of committed instruction
system.cpu.commit.committedInstType_0::SimdFloatReduceAdd            0      0.00%     69.13% # Class of committed instruction
system.cpu.commit.committedInstType_0::SimdFloatReduceCmp            0      0.00%     69.13% # Class of committed instruction
system.cpu.commit.committedInstType_0::SimdAes            0      0.00%     69.13% # Class of committed instruction
system.cpu.commit.committedInstType_0::SimdAesMix            0      0.00%     69.13% # Class of committed instruction
system.cpu.commit.committedInstType_0::SimdSha1Hash            0      0.00%     69.13% # Class of committed instruction
system.cpu.commit.committedInstType_0::SimdSha1Hash2            0      0.00%     69.13% # Class of committed instruction
system.cpu.commit.committedInstType_0::SimdSha256Hash            0      0.00%     69.13% # Class of committed instruction
system.cpu.commit.committedInstType_0::SimdSha256Hash2            0      0.00%     69.13% # Class of committed instruction
system.cpu.commit.committedInstType_0::SimdShaSigma2            0      0.00%     69.13% # Class of committed instruction
system.cpu.commit.committedInstType_0::SimdShaSigma3            0      0.00%     69.13% # Class of committed instruction
system.cpu.commit.committedInstType_0::SimdPredAlu            0      0.00%     69.13% # Class of committed instruction
system.cpu.commit.committedInstType_0::MemRead      8917926     20.10%     89.23% # Class of committed instruction
system.cpu.commit.committedInstType_0::MemWrite      4780085     10.77%    100.00% # Class of committed instruction
system.cpu.commit.committedInstType_0::FloatMemRead            0      0.00%    100.00% # Class of committed instruction
system.cpu.commit.committedInstType_0::FloatMemWrite            0      0.00%    100.00% # Class of committed instruction
system.cpu.commit.committedInstType_0::IprAccess            0      0.00%    100.00% # Class of committed instruction
system.cpu.commit.committedInstType_0::InstPrefetch            0      0.00%    100.00% # Class of committed instruction
system.cpu.commit.committedInstType_0::total     44377998                       # Class of committed instruction
system.cpu.commit.commitEligibleSamples       2281277                       # number cycles where commit BW limit reached
system.cpu.dcache.demand_hits::.cpu.data     13625593                       # number of demand (read+write) hits
system.cpu.dcache.demand_hits::total         13625593                       # number of demand (read+write) hits
system.cpu.dcache.overall_hits::.cpu.data     13625593                       # number of overall hits
system.cpu.dcache.overall_hits::total        13625593                       # number of overall hits
system.cpu.dcache.demand_misses::.cpu.data        80860                       # number of demand (read+write) misses
system.cpu.dcache.demand_misses::total          80860                       # number of demand (read+write) misses
system.cpu.dcache.overall_misses::.cpu.data        80860                       # number of overall misses
system.cpu.dcache.overall_misses::total         80860                       # number of overall misses
system.cpu.dcache.demand_miss_latency::.cpu.data    932014993                       # number of demand (read+write) miss cycles
system.cpu.dcache.demand_miss_latency::total    932014993                       # number of demand (read+write) miss cycles
system.cpu.dcache.overall_miss_latency::.cpu.data    932014993                       # number of overall miss cycles
system.cpu.dcache.overall_miss_latency::total    932014993                       # number of overall miss cycles
system.cpu.dcache.demand_accesses::.cpu.data     13706453                       # number of demand (read+write) accesses
system.cpu.dcache.demand_accesses::total     13706453                       # number of demand (read+write) accesses
system.cpu.dcache.overall_accesses::.cpu.data     13706453                       # number of overall (read+write) accesses
system.cpu.dcache.overall_accesses::total     13706453                       # number of overall (read+write) accesses
system.cpu.dcache.demand_miss_rate::.cpu.data     0.005899                       # miss rate for demand accesses
system.cpu.dcache.demand_miss_rate::total     0.005899                       # miss rate for demand accesses
system.cpu.dcache.overall_miss_rate::.cpu.data     0.005899                       # miss rate for overall accesses
system.cpu.dcache.overall_miss_rate::total     0.005899                       # miss rate for overall accesses
system.cpu.dcache.demand_avg_miss_latency::.cpu.data 11526.279904                       # average overall miss latency
system.cpu.dcache.demand_avg_miss_latency::total 11526.279904                       # average overall miss latency
system.cpu.dcache.overall_avg_miss_latency::.cpu.data 11526.279904                       # average overall miss latency
system.cpu.dcache.overall_avg_miss_latency::total 11526.279904                       # average overall miss latency
system.cpu.dcache.blocked_cycles::no_mshrs         1204                       # number of cycles access was blocked
system.cpu.dcache.blocked_cycles::no_targets            0                       # number of cycles access was blocked
system.cpu.dcache.blocked::no_mshrs                18                       # number of cycles access was blocked
system.cpu.dcache.blocked::no_targets               0                       # number of cycles access was blocked
system.cpu.dcache.avg_blocked_cycles::no_mshrs    66.888889                       # average number of cycles each access was blocked
system.cpu.dcache.avg_blocked_cycles::no_targets          nan                       # average number of cycles each access was blocked
system.cpu.dcache.writebacks::.writebacks        19286                       # number of writebacks
system.cpu.dcache.writebacks::total             19286                       # number of writebacks
system.cpu.dcache.demand_mshr_hits::.cpu.data        57539                       # number of demand (read+write) MSHR hits
system.cpu.dcache.demand_mshr_hits::total        57539                       # number of demand (read+write) MSHR hits
system.cpu.dcache.overall_mshr_hits::.cpu.data        57539                       # number of overall MSHR hits
system.cpu.dcache.overall_mshr_hits::total        57539                       # number of overall MSHR hits
system.cpu.dcache.demand_mshr_misses::.cpu.data        23321                       # number of demand (read+write) MSHR misses
system.cpu.dcache.demand_mshr_misses::total        23321                       # number of demand (read+write) MSHR misses
system.cpu.dcache.overall_mshr_misses::.cpu.data        23321                       # number of overall MSHR misses
system.cpu.dcache.overall_mshr_misses::total        23321                       # number of overall MSHR misses
system.cpu.dcache.demand_mshr_miss_latency::.cpu.data    360714499                       # number of demand (read+write) MSHR miss cycles
system.cpu.dcache.demand_mshr_miss_latency::total    360714499                       # number of demand (read+write) MSHR miss cycles
system.cpu.dcache.overall_mshr_miss_latency::.cpu.data    360714499                       # number of overall MSHR miss cycles
system.cpu.dcache.overall_mshr_miss_latency::total    360714499                       # number of overall MSHR miss cycles
system.cpu.dcache.demand_mshr_miss_rate::.cpu.data     0.001701                       # mshr miss rate for demand accesses
system.cpu.dcache.demand_mshr_miss_rate::total     0.001701                       # mshr miss rate for demand accesses
system.cpu.dcache.overall_mshr_miss_rate::.cpu.data     0.001701                       # mshr miss rate for overall accesses
system.cpu.dcache.overall_mshr_miss_rate::total     0.001701                       # mshr miss rate for overall accesses
system.cpu.dcache.demand_avg_mshr_miss_latency::.cpu.data 15467.368423                       # average overall mshr miss latency
system.cpu.dcache.demand_avg_mshr_miss_latency::total 15467.368423                       # average overall mshr miss latency
system.cpu.dcache.overall_avg_mshr_miss_latency::.cpu.data 15467.368423                       # average overall mshr miss latency
system.cpu.dcache.overall_avg_mshr_miss_latency::total 15467.368423                       # average overall mshr miss latency
system.cpu.dcache.replacements                  22444                       # number of replacements
system.cpu.dcache.ReadReq_hits::.cpu.data      8906069                       # number of ReadReq hits
system.cpu.dcache.ReadReq_hits::total         8906069                       # number of ReadReq hits
system.cpu.dcache.ReadReq_misses::.cpu.data        78198                       # number of ReadReq misses
system.cpu.dcache.ReadReq_misses::total         78198                       # number of ReadReq misses
system.cpu.dcache.ReadReq_miss_latency::.cpu.data    794920500                       # number of ReadReq miss cycles
system.cpu.dcache.ReadReq_miss_latency::total    794920500                       # number of ReadReq miss cycles
system.cpu.dcache.ReadReq_accesses::.cpu.data      8984267                       # number of ReadReq accesses(hits+misses)
system.cpu.dcache.ReadReq_accesses::total      8984267                       # number of ReadReq accesses(hits+misses)
system.cpu.dcache.ReadReq_miss_rate::.cpu.data     0.008704                       # miss rate for ReadReq accesses
system.cpu.dcache.ReadReq_miss_rate::total     0.008704                       # miss rate for ReadReq accesses
system.cpu.dcache.ReadReq_avg_miss_latency::.cpu.data 10165.483772                       # average ReadReq miss latency
system.cpu.dcache.ReadReq_avg_miss_latency::total 10165.483772                       # average ReadReq miss latency
system.cpu.dcache.ReadReq_mshr_hits::.cpu.data        56013                       # number of ReadReq MSHR hits
system.cpu.dcache.ReadReq_mshr_hits::total        56013                       # number of ReadReq MSHR hits
system.cpu.dcache.ReadReq_mshr_misses::.cpu.data        22185                       # number of ReadReq MSHR misses
system.cpu.dcache.ReadReq_mshr_misses::total        22185                       # number of ReadReq MSHR misses
system.cpu.dcache.ReadReq_mshr_miss_latency::.cpu.data    289506500                       # number of ReadReq MSHR miss cycles
system.cpu.dcache.ReadReq_mshr_miss_latency::total    289506500                       # number of ReadReq MSHR miss cycles
system.cpu.dcache.ReadReq_mshr_miss_rate::.cpu.data     0.002469                       # mshr miss rate for ReadReq accesses
system.cpu.dcache.ReadReq_mshr_miss_rate::total     0.002469                       # mshr miss rate for ReadReq accesses
system.cpu.dcache.ReadReq_avg_mshr_miss_latency::.cpu.data 13049.650665                       # average ReadReq mshr miss latency
system.cpu.dcache.ReadReq_avg_mshr_miss_latency::total 13049.650665                       # average ReadReq mshr miss latency
system.cpu.dcache.WriteReq_hits::.cpu.data      4719524                       # number of WriteReq hits
system.cpu.dcache.WriteReq_hits::total        4719524                       # number of WriteReq hits
system.cpu.dcache.WriteReq_misses::.cpu.data         2662                       # number of WriteReq misses
system.cpu.dcache.WriteReq_misses::total         2662                       # number of WriteReq misses
system.cpu.dcache.WriteReq_miss_latency::.cpu.data    137094493                       # number of WriteReq miss cycles
system.cpu.dcache.WriteReq_miss_latency::total    137094493                       # number of WriteReq miss cycles
system.cpu.dcache.WriteReq_accesses::.cpu.data      4722186                       # number of WriteReq accesses(hits+misses)
system.cpu.dcache.WriteReq_accesses::total      4722186                       # number of WriteReq accesses(hits+misses)
system.cpu.dcache.WriteReq_miss_rate::.cpu.data     0.000564                       # miss rate for WriteReq accesses
system.cpu.dcache.WriteReq_miss_rate::total     0.000564                       # miss rate for WriteReq accesses
system.cpu.dcache.WriteReq_avg_miss_latency::.cpu.data 51500.560856                       # average WriteReq miss latency
system.cpu.dcache.WriteReq_avg_miss_latency::total 51500.560856                       # average WriteReq miss latency
system.cpu.dcache.WriteReq_mshr_hits::.cpu.data         1526                       # number of WriteReq MSHR hits
system.cpu.dcache.WriteReq_mshr_hits::total         1526                       # number of WriteReq MSHR hits
system.cpu.dcache.WriteReq_mshr_misses::.cpu.data         1136                       # number of WriteReq MSHR misses
system.cpu.dcache.WriteReq_mshr_misses::total         1136                       # number of WriteReq MSHR misses
system.cpu.dcache.WriteReq_mshr_miss_latency::.cpu.data     71207999                       # number of WriteReq MSHR miss cycles
system.cpu.dcache.WriteReq_mshr_miss_latency::total     71207999                       # number of WriteReq MSHR miss cycles
system.cpu.dcache.WriteReq_mshr_miss_rate::.cpu.data     0.000241                       # mshr miss rate for WriteReq accesses
system.cpu.dcache.WriteReq_mshr_miss_rate::total     0.000241                       # mshr miss rate for WriteReq accesses
system.cpu.dcache.WriteReq_avg_mshr_miss_latency::.cpu.data 62683.097711                       # average WriteReq mshr miss latency
system.cpu.dcache.WriteReq_avg_mshr_miss_latency::total 62683.097711                       # average WriteReq mshr miss latency
system.cpu.dcache.LoadLockedReq_hits::.cpu.data        21127                       # number of LoadLockedReq hits
system.cpu.dcache.LoadLockedReq_hits::total        21127                       # number of LoadLockedReq hits
system.cpu.dcache.LoadLockedReq_misses::.cpu.data            3                       # number of LoadLockedReq misses
system.cpu.dcache.LoadLockedReq_misses::total            3                       # number of LoadLockedReq misses
system.cpu.dcache.LoadLockedReq_miss_latency::.cpu.data       118500                       # number of LoadLockedReq miss cycles
system.cpu.dcache.LoadLockedReq_miss_latency::total       118500                       # number of LoadLockedReq miss cycles
system.cpu.dcache.LoadLockedReq_accesses::.cpu.data        21130                       # number of LoadLockedReq accesses(hits+misses)
system.cpu.dcache.LoadLockedReq_accesses::total        21130                       # number of LoadLockedReq accesses(hits+misses)
system.cpu.dcache.LoadLockedReq_miss_rate::.cpu.data     0.000142                       # miss rate for LoadLockedReq accesses
system.cpu.dcache.LoadLockedReq_miss_rate::total     0.000142                       # miss rate for LoadLockedReq accesses
system.cpu.dcache.LoadLockedReq_avg_miss_latency::.cpu.data        39500                       # average LoadLockedReq miss latency
system.cpu.dcache.LoadLockedReq_avg_miss_latency::total        39500                       # average LoadLockedReq miss latency
system.cpu.dcache.LoadLockedReq_mshr_hits::.cpu.data            3                       # number of LoadLockedReq MSHR hits
system.cpu.dcache.LoadLockedReq_mshr_hits::total            3                       # number of LoadLockedReq MSHR hits
system.cpu.dcache.StoreCondReq_hits::.cpu.data        20960                       # number of StoreCondReq hits
system.cpu.dcache.StoreCondReq_hits::total        20960                       # number of StoreCondReq hits
system.cpu.dcache.StoreCondReq_accesses::.cpu.data        20960                       # number of StoreCondReq accesses(hits+misses)
system.cpu.dcache.StoreCondReq_accesses::total        20960                       # number of StoreCondReq accesses(hits+misses)
system.cpu.dcache.power_state.pwrStateResidencyTicks::UNDEFINED  10390907000                       # Cumulative time (in ticks) in various power states
system.cpu.dcache.tags.tagsinuse           823.451251                       # Cycle average of tags in use
system.cpu.dcache.tags.total_refs            13691001                       # Total number of references to valid blocks.
system.cpu.dcache.tags.sampled_refs             23321                       # Sample count of references to valid blocks.
system.cpu.dcache.tags.avg_refs            587.067493                       # Average number of references to valid blocks.
system.cpu.dcache.tags.warmup_cycle            176500                       # Cycle when the warmup percentage was hit.
system.cpu.dcache.tags.occ_blocks::.cpu.data   823.451251                       # Average occupied blocks per requestor
system.cpu.dcache.tags.occ_percent::.cpu.data     0.804152                       # Average percentage of cache occupancy
system.cpu.dcache.tags.occ_percent::total     0.804152                       # Average percentage of cache occupancy
system.cpu.dcache.tags.occ_task_id_blocks::1024          877                       # Occupied blocks per task id
system.cpu.dcache.tags.age_task_id_blocks_1024::0           32                       # Occupied blocks per task id
system.cpu.dcache.tags.age_task_id_blocks_1024::1           67                       # Occupied blocks per task id
system.cpu.dcache.tags.age_task_id_blocks_1024::2           71                       # Occupied blocks per task id
system.cpu.dcache.tags.age_task_id_blocks_1024::3          586                       # Occupied blocks per task id
system.cpu.dcache.tags.age_task_id_blocks_1024::4          121                       # Occupied blocks per task id
system.cpu.dcache.tags.occ_task_id_percent::1024     0.856445                       # Percentage of cache occupancy per task id
system.cpu.dcache.tags.tag_accesses          27520407                       # Number of tag accesses
system.cpu.dcache.tags.data_accesses         27520407                       # Number of data accesses
system.cpu.dcache.tags.power_state.pwrStateResidencyTicks::UNDEFINED  10390907000                       # Cumulative time (in ticks) in various power states
system.cpu.decode.idleCycles                  8814457                       # Number of cycles decode is idle
system.cpu.decode.blockedCycles                821736                       # Number of cycles decode is blocked
system.cpu.decode.runCycles                  10890193                       # Number of cycles decode is running
system.cpu.decode.unblockCycles                 91438                       # Number of cycles decode is unblocking
system.cpu.decode.squashCycles                 115885                       # Number of cycles decode is squashing
system.cpu.decode.branchResolved              5858849                       # Number of times decode resolved a  branch
system.cpu.decode.branchMispred                   473                       # Number of times decode detected a branch misprediction
system.cpu.decode.decodedInsts               47440195                       # Number of instructions handled by decode
system.cpu.decode.squashedInsts                  1696                       # Number of squashed instructions handled by decode
system.cpu.dtb.instHits                             0                       # ITB inst hits
system.cpu.dtb.instMisses                           0                       # ITB inst misses
system.cpu.dtb.readHits                             0                       # DTB read hits
system.cpu.dtb.readMisses                           0                       # DTB read misses
system.cpu.dtb.writeHits                            0                       # DTB write hits
system.cpu.dtb.writeMisses                          0                       # DTB write misses
system.cpu.dtb.inserts                              0                       # Number of times an entry is inserted into the TLB
system.cpu.dtb.flushTlb                             0                       # Number of times complete TLB was flushed
system.cpu.dtb.flushTlbMva                          0                       # Number of times TLB was flushed by MVA
system.cpu.dtb.flushTlbMvaAsid                      0                       # Number of times TLB was flushed by MVA & ASID
system.cpu.dtb.flushTlbAsid                         0                       # Number of times TLB was flushed by ASID
system.cpu.dtb.flushedEntries                       0                       # Number of entries that have been flushed from TLB
system.cpu.dtb.alignFaults                          0                       # Number of TLB faults due to alignment restrictions
system.cpu.dtb.prefetchFaults                       0                       # Number of TLB faults due to prefetch
system.cpu.dtb.domainFaults                         0                       # Number of TLB faults due to domain restrictions
system.cpu.dtb.permsFaults                          0                       # Number of TLB faults due to permissions restrictions
system.cpu.dtb.readAccesses                         0                       # DTB read accesses
system.cpu.dtb.writeAccesses                        0                       # DTB write accesses
system.cpu.dtb.instAccesses                         0                       # ITB inst accesses
system.cpu.dtb.hits                                 0                       # Total TLB (inst and data) hits
system.cpu.dtb.misses                               0                       # Total TLB (inst and data) misses
system.cpu.dtb.accesses                             0                       # Total TLB (inst and data) accesses
system.cpu.dtb.stage2_mmu.stage2_tlb.instHits            0                       # ITB inst hits
system.cpu.dtb.stage2_mmu.stage2_tlb.instMisses            0                       # ITB inst misses
system.cpu.dtb.stage2_mmu.stage2_tlb.readHits            0                       # DTB read hits
system.cpu.dtb.stage2_mmu.stage2_tlb.readMisses            0                       # DTB read misses
system.cpu.dtb.stage2_mmu.stage2_tlb.writeHits            0                       # DTB write hits
system.cpu.dtb.stage2_mmu.stage2_tlb.writeMisses            0                       # DTB write misses
system.cpu.dtb.stage2_mmu.stage2_tlb.inserts            0                       # Number of times an entry is inserted into the TLB
system.cpu.dtb.stage2_mmu.stage2_tlb.flushTlb            0                       # Number of times complete TLB was flushed
system.cpu.dtb.stage2_mmu.stage2_tlb.flushTlbMva            0                       # Number of times TLB was flushed by MVA
system.cpu.dtb.stage2_mmu.stage2_tlb.flushTlbMvaAsid            0                       # Number of times TLB was flushed by MVA & ASID
system.cpu.dtb.stage2_mmu.stage2_tlb.flushTlbAsid            0                       # Number of times TLB was flushed by ASID
system.cpu.dtb.stage2_mmu.stage2_tlb.flushedEntries            0                       # Number of entries that have been flushed from TLB
system.cpu.dtb.stage2_mmu.stage2_tlb.alignFaults            0                       # Number of TLB faults due to alignment restrictions
system.cpu.dtb.stage2_mmu.stage2_tlb.prefetchFaults            0                       # Number of TLB faults due to prefetch
system.cpu.dtb.stage2_mmu.stage2_tlb.domainFaults            0                       # Number of TLB faults due to domain restrictions
system.cpu.dtb.stage2_mmu.stage2_tlb.permsFaults            0                       # Number of TLB faults due to permissions restrictions
system.cpu.dtb.stage2_mmu.stage2_tlb.readAccesses            0                       # DTB read accesses
system.cpu.dtb.stage2_mmu.stage2_tlb.writeAccesses            0                       # DTB write accesses
system.cpu.dtb.stage2_mmu.stage2_tlb.instAccesses            0                       # ITB inst accesses
system.cpu.dtb.stage2_mmu.stage2_tlb.hits            0                       # Total TLB (inst and data) hits
system.cpu.dtb.stage2_mmu.stage2_tlb.misses            0                       # Total TLB (inst and data) misses
system.cpu.dtb.stage2_mmu.stage2_tlb.accesses            0                       # Total TLB (inst and data) accesses
system.cpu.dtb.stage2_mmu.stage2_tlb.walker.walks            0                       # Table walker walks requested
system.cpu.dtb.stage2_mmu.stage2_tlb.walker.requestOrigin_Requested::Data            0                       # Table walker requests started/completed, data/inst
system.cpu.dtb.stage2_mmu.stage2_tlb.walker.requestOrigin_Requested::Inst            0                       # Table walker requests started/completed, data/inst
system.cpu.dtb.stage2_mmu.stage2_tlb.walker.requestOrigin_Requested::total            0                       # Table walker requests started/completed, data/inst
system.cpu.dtb.stage2_mmu.stage2_tlb.walker.requestOrigin_Completed::Data            0                       # Table walker requests started/completed, data/inst
system.cpu.dtb.stage2_mmu.stage2_tlb.walker.requestOrigin_Completed::Inst            0                       # Table walker requests started/completed, data/inst
system.cpu.dtb.stage2_mmu.stage2_tlb.walker.requestOrigin_Completed::total            0                       # Table walker requests started/completed, data/inst
system.cpu.dtb.stage2_mmu.stage2_tlb.walker.requestOrigin::total            0                       # Table walker requests started/completed, data/inst
system.cpu.dtb.stage2_mmu.stage2_tlb.walker.power_state.pwrStateResidencyTicks::UNDEFINED  10390907000                       # Cumulative time (in ticks) in various power states
system.cpu.dtb.walker.walks                         0                       # Table walker walks requested
system.cpu.dtb.walker.requestOrigin_Requested::Data            0                       # Table walker requests started/completed, data/inst
system.cpu.dtb.walker.requestOrigin_Requested::Inst            0                       # Table walker requests started/completed, data/inst
system.cpu.dtb.walker.requestOrigin_Requested::total            0                       # Table walker requests started/completed, data/inst
system.cpu.dtb.walker.requestOrigin_Completed::Data            0                       # Table walker requests started/completed, data/inst
system.cpu.dtb.walker.requestOrigin_Completed::Inst            0                       # Table walker requests started/completed, data/inst
system.cpu.dtb.walker.requestOrigin_Completed::total            0                       # Table walker requests started/completed, data/inst
system.cpu.dtb.walker.requestOrigin::total            0                       # Table walker requests started/completed, data/inst
system.cpu.dtb.walker.power_state.pwrStateResidencyTicks::UNDEFINED  10390907000                       # Cumulative time (in ticks) in various power states
system.cpu.fetch.icacheStallCycles            8964375                       # Number of cycles fetch is stalled on an Icache miss
system.cpu.fetch.insts                       45392786                       # Number of instructions fetch has processed
system.cpu.fetch.branches                    10799727                       # Number of branches that fetch encountered
system.cpu.fetch.predictedBranches            6347866                       # Number of branches that fetch has predicted taken
system.cpu.fetch.cycles                      11652606                       # Number of cycles fetch has run and was not squashing or blocked
system.cpu.fetch.squashCycles                  232642                       # Number of cycles fetch has spent squashing
system.cpu.fetch.miscStallCycles                   51                       # Number of cycles fetch has spent waiting on interrupts,or bad addresses, or out of MSHRs
system.cpu.fetch.pendingTrapStallCycles           258                       # Number of stall cycles due to pending traps
system.cpu.fetch.icacheWaitRetryStallCycles           98                       # Number of stall cycles due to full MSHR
system.cpu.fetch.cacheLines                   8910208                       # Number of cache lines fetched
system.cpu.fetch.icacheSquashes                 67637                       # Number of outstanding Icache misses that were squashed
system.cpu.fetch.nisnDist::samples           20733709                       # Number of instructions fetched each cycle (Total)
system.cpu.fetch.nisnDist::mean              2.334453                       # Number of instructions fetched each cycle (Total)
system.cpu.fetch.nisnDist::stdev             2.809043                       # Number of instructions fetched each cycle (Total)
system.cpu.fetch.nisnDist::underflows               0      0.00%      0.00% # Number of instructions fetched each cycle (Total)
system.cpu.fetch.nisnDist::0                  9493314     45.79%     45.79% # Number of instructions fetched each cycle (Total)
system.cpu.fetch.nisnDist::1                  2195739     10.59%     56.38% # Number of instructions fetched each cycle (Total)
system.cpu.fetch.nisnDist::2                   430310      2.08%     58.45% # Number of instructions fetched each cycle (Total)
system.cpu.fetch.nisnDist::3                  2117087     10.21%     68.66% # Number of instructions fetched each cycle (Total)
system.cpu.fetch.nisnDist::4                  1805741      8.71%     77.37% # Number of instructions fetched each cycle (Total)
system.cpu.fetch.nisnDist::5                  1747041      8.43%     85.80% # Number of instructions fetched each cycle (Total)
system.cpu.fetch.nisnDist::6                   203300      0.98%     86.78% # Number of instructions fetched each cycle (Total)
system.cpu.fetch.nisnDist::7                   113132      0.55%     87.32% # Number of instructions fetched each cycle (Total)
system.cpu.fetch.nisnDist::8                  2628045     12.68%    100.00% # Number of instructions fetched each cycle (Total)
system.cpu.fetch.nisnDist::overflows                0      0.00%    100.00% # Number of instructions fetched each cycle (Total)
system.cpu.fetch.nisnDist::min_value                0                       # Number of instructions fetched each cycle (Total)
system.cpu.fetch.nisnDist::max_value                8                       # Number of instructions fetched each cycle (Total)
system.cpu.fetch.nisnDist::total             20733709                       # Number of instructions fetched each cycle (Total)
system.cpu.fetch.branchRate                  0.519672                       # Number of branch fetches per cycle
system.cpu.fetch.rate                        2.184255                       # Number of inst fetches per cycle
system.cpu.icache.demand_hits::.cpu.inst      8909007                       # number of demand (read+write) hits
system.cpu.icache.demand_hits::total          8909007                       # number of demand (read+write) hits
system.cpu.icache.overall_hits::.cpu.inst      8909007                       # number of overall hits
system.cpu.icache.overall_hits::total         8909007                       # number of overall hits
system.cpu.icache.demand_misses::.cpu.inst         1200                       # number of demand (read+write) misses
system.cpu.icache.demand_misses::total           1200                       # number of demand (read+write) misses
system.cpu.icache.overall_misses::.cpu.inst         1200                       # number of overall misses
system.cpu.icache.overall_misses::total          1200                       # number of overall misses
system.cpu.icache.demand_miss_latency::.cpu.inst     74136500                       # number of demand (read+write) miss cycles
system.cpu.icache.demand_miss_latency::total     74136500                       # number of demand (read+write) miss cycles
system.cpu.icache.overall_miss_latency::.cpu.inst     74136500                       # number of overall miss cycles
system.cpu.icache.overall_miss_latency::total     74136500                       # number of overall miss cycles
system.cpu.icache.demand_accesses::.cpu.inst      8910207                       # number of demand (read+write) accesses
system.cpu.icache.demand_accesses::total      8910207                       # number of demand (read+write) accesses
system.cpu.icache.overall_accesses::.cpu.inst      8910207                       # number of overall (read+write) accesses
system.cpu.icache.overall_accesses::total      8910207                       # number of overall (read+write) accesses
system.cpu.icache.demand_miss_rate::.cpu.inst     0.000135                       # miss rate for demand accesses
system.cpu.icache.demand_miss_rate::total     0.000135                       # miss rate for demand accesses
system.cpu.icache.overall_miss_rate::.cpu.inst     0.000135                       # miss rate for overall accesses
system.cpu.icache.overall_miss_rate::total     0.000135                       # miss rate for overall accesses
system.cpu.icache.demand_avg_miss_latency::.cpu.inst 61780.416667                       # average overall miss latency
system.cpu.icache.demand_avg_miss_latency::total 61780.416667                       # average overall miss latency
system.cpu.icache.overall_avg_miss_latency::.cpu.inst 61780.416667                       # average overall miss latency
system.cpu.icache.overall_avg_miss_latency::total 61780.416667                       # average overall miss latency
system.cpu.icache.blocked_cycles::no_mshrs          720                       # number of cycles access was blocked
system.cpu.icache.blocked_cycles::no_targets            0                       # number of cycles access was blocked
system.cpu.icache.blocked::no_mshrs                15                       # number of cycles access was blocked
system.cpu.icache.blocked::no_targets               0                       # number of cycles access was blocked
system.cpu.icache.avg_blocked_cycles::no_mshrs           48                       # average number of cycles each access was blocked
system.cpu.icache.avg_blocked_cycles::no_targets          nan                       # average number of cycles each access was blocked
system.cpu.icache.writebacks::.writebacks          426                       # number of writebacks
system.cpu.icache.writebacks::total               426                       # number of writebacks
system.cpu.icache.demand_mshr_hits::.cpu.inst          314                       # number of demand (read+write) MSHR hits
system.cpu.icache.demand_mshr_hits::total          314                       # number of demand (read+write) MSHR hits
system.cpu.icache.overall_mshr_hits::.cpu.inst          314                       # number of overall MSHR hits
system.cpu.icache.overall_mshr_hits::total          314                       # number of overall MSHR hits
system.cpu.icache.demand_mshr_misses::.cpu.inst          886                       # number of demand (read+write) MSHR misses
system.cpu.icache.demand_mshr_misses::total          886                       # number of demand (read+write) MSHR misses
system.cpu.icache.overall_mshr_misses::.cpu.inst          886                       # number of overall MSHR misses
system.cpu.icache.overall_mshr_misses::total          886                       # number of overall MSHR misses
system.cpu.icache.demand_mshr_miss_latency::.cpu.inst     57423500                       # number of demand (read+write) MSHR miss cycles
system.cpu.icache.demand_mshr_miss_latency::total     57423500                       # number of demand (read+write) MSHR miss cycles
system.cpu.icache.overall_mshr_miss_latency::.cpu.inst     57423500                       # number of overall MSHR miss cycles
system.cpu.icache.overall_mshr_miss_latency::total     57423500                       # number of overall MSHR miss cycles
system.cpu.icache.demand_mshr_miss_rate::.cpu.inst     0.000099                       # mshr miss rate for demand accesses
system.cpu.icache.demand_mshr_miss_rate::total     0.000099                       # mshr miss rate for demand accesses
system.cpu.icache.overall_mshr_miss_rate::.cpu.inst     0.000099                       # mshr miss rate for overall accesses
system.cpu.icache.overall_mshr_miss_rate::total     0.000099                       # mshr miss rate for overall accesses
system.cpu.icache.demand_avg_mshr_miss_latency::.cpu.inst 64812.076749                       # average overall mshr miss latency
system.cpu.icache.demand_avg_mshr_miss_latency::total 64812.076749                       # average overall mshr miss latency
system.cpu.icache.overall_avg_mshr_miss_latency::.cpu.inst 64812.076749                       # average overall mshr miss latency
system.cpu.icache.overall_avg_mshr_miss_latency::total 64812.076749                       # average overall mshr miss latency
system.cpu.icache.replacements                    426                       # number of replacements
system.cpu.icache.ReadReq_hits::.cpu.inst      8909007                       # number of ReadReq hits
system.cpu.icache.ReadReq_hits::total         8909007                       # number of ReadReq hits
system.cpu.icache.ReadReq_misses::.cpu.inst         1200                       # number of ReadReq misses
system.cpu.icache.ReadReq_misses::total          1200                       # number of ReadReq misses
system.cpu.icache.ReadReq_miss_latency::.cpu.inst     74136500                       # number of ReadReq miss cycles
system.cpu.icache.ReadReq_miss_latency::total     74136500                       # number of ReadReq miss cycles
system.cpu.icache.ReadReq_accesses::.cpu.inst      8910207                       # number of ReadReq accesses(hits+misses)
system.cpu.icache.ReadReq_accesses::total      8910207                       # number of ReadReq accesses(hits+misses)
system.cpu.icache.ReadReq_miss_rate::.cpu.inst     0.000135                       # miss rate for ReadReq accesses
system.cpu.icache.ReadReq_miss_rate::total     0.000135                       # miss rate for ReadReq accesses
system.cpu.icache.ReadReq_avg_miss_latency::.cpu.inst 61780.416667                       # average ReadReq miss latency
system.cpu.icache.ReadReq_avg_miss_latency::total 61780.416667                       # average ReadReq miss latency
system.cpu.icache.ReadReq_mshr_hits::.cpu.inst          314                       # number of ReadReq MSHR hits
system.cpu.icache.ReadReq_mshr_hits::total          314                       # number of ReadReq MSHR hits
system.cpu.icache.ReadReq_mshr_misses::.cpu.inst          886                       # number of ReadReq MSHR misses
system.cpu.icache.ReadReq_mshr_misses::total          886                       # number of ReadReq MSHR misses
system.cpu.icache.ReadReq_mshr_miss_latency::.cpu.inst     57423500                       # number of ReadReq MSHR miss cycles
system.cpu.icache.ReadReq_mshr_miss_latency::total     57423500                       # number of ReadReq MSHR miss cycles
system.cpu.icache.ReadReq_mshr_miss_rate::.cpu.inst     0.000099                       # mshr miss rate for ReadReq accesses
system.cpu.icache.ReadReq_mshr_miss_rate::total     0.000099                       # mshr miss rate for ReadReq accesses
system.cpu.icache.ReadReq_avg_mshr_miss_latency::.cpu.inst 64812.076749                       # average ReadReq mshr miss latency
system.cpu.icache.ReadReq_avg_mshr_miss_latency::total 64812.076749                       # average ReadReq mshr miss latency
system.cpu.icache.power_state.pwrStateResidencyTicks::UNDEFINED  10390907000                       # Cumulative time (in ticks) in various power states
system.cpu.icache.tags.tagsinuse           433.408764                       # Cycle average of tags in use
system.cpu.icache.tags.total_refs             8909893                       # Total number of references to valid blocks.
system.cpu.icache.tags.sampled_refs               886                       # Sample count of references to valid blocks.
system.cpu.icache.tags.avg_refs          10056.312641                       # Average number of references to valid blocks.
system.cpu.icache.tags.warmup_cycle             87500                       # Cycle when the warmup percentage was hit.
system.cpu.icache.tags.occ_blocks::.cpu.inst   433.408764                       # Average occupied blocks per requestor
system.cpu.icache.tags.occ_percent::.cpu.inst     0.846501                       # Average percentage of cache occupancy
system.cpu.icache.tags.occ_percent::total     0.846501                       # Average percentage of cache occupancy
system.cpu.icache.tags.occ_task_id_blocks::1024          460                       # Occupied blocks per task id
system.cpu.icache.tags.age_task_id_blocks_1024::0           65                       # Occupied blocks per task id
system.cpu.icache.tags.age_task_id_blocks_1024::3          172                       # Occupied blocks per task id
system.cpu.icache.tags.age_task_id_blocks_1024::4          223                       # Occupied blocks per task id
system.cpu.icache.tags.occ_task_id_percent::1024     0.898438                       # Percentage of cache occupancy per task id
system.cpu.icache.tags.tag_accesses          17821300                       # Number of tag accesses
system.cpu.icache.tags.data_accesses         17821300                       # Number of data accesses
system.cpu.icache.tags.power_state.pwrStateResidencyTicks::UNDEFINED  10390907000                       # Cumulative time (in ticks) in various power states
system.cpu.itb.instHits                             0                       # ITB inst hits
system.cpu.itb.instMisses                           0                       # ITB inst misses
system.cpu.itb.readHits                             0                       # DTB read hits
system.cpu.itb.readMisses                           0                       # DTB read misses
system.cpu.itb.writeHits                            0                       # DTB write hits
system.cpu.itb.writeMisses                          0                       # DTB write misses
system.cpu.itb.inserts                              0                       # Number of times an entry is inserted into the TLB
system.cpu.itb.flushTlb                             0                       # Number of times complete TLB was flushed
system.cpu.itb.flushTlbMva                          0                       # Number of times TLB was flushed by MVA
system.cpu.itb.flushTlbMvaAsid                      0                       # Number of times TLB was flushed by MVA & ASID
system.cpu.itb.flushTlbAsid                         0                       # Number of times TLB was flushed by ASID
system.cpu.itb.flushedEntries                       0                       # Number of entries that have been flushed from TLB
system.cpu.itb.alignFaults                          0                       # Number of TLB faults due to alignment restrictions
system.cpu.itb.prefetchFaults                       0                       # Number of TLB faults due to prefetch
system.cpu.itb.domainFaults                         0                       # Number of TLB faults due to domain restrictions
system.cpu.itb.permsFaults                          0                       # Number of TLB faults due to permissions restrictions
system.cpu.itb.readAccesses                         0                       # DTB read accesses
system.cpu.itb.writeAccesses                        0                       # DTB write accesses
system.cpu.itb.instAccesses                         0                       # ITB inst accesses
system.cpu.itb.hits                                 0                       # Total TLB (inst and data) hits
system.cpu.itb.misses                               0                       # Total TLB (inst and data) misses
system.cpu.itb.accesses                             0                       # Total TLB (inst and data) accesses
system.cpu.itb.stage2_mmu.stage2_tlb.instHits            0                       # ITB inst hits
system.cpu.itb.stage2_mmu.stage2_tlb.instMisses            0                       # ITB inst misses
system.cpu.itb.stage2_mmu.stage2_tlb.readHits            0                       # DTB read hits
system.cpu.itb.stage2_mmu.stage2_tlb.readMisses            0                       # DTB read misses
system.cpu.itb.stage2_mmu.stage2_tlb.writeHits            0                       # DTB write hits
system.cpu.itb.stage2_mmu.stage2_tlb.writeMisses            0                       # DTB write misses
system.cpu.itb.stage2_mmu.stage2_tlb.inserts            0                       # Number of times an entry is inserted into the TLB
system.cpu.itb.stage2_mmu.stage2_tlb.flushTlb            0                       # Number of times complete TLB was flushed
system.cpu.itb.stage2_mmu.stage2_tlb.flushTlbMva            0                       # Number of times TLB was flushed by MVA
system.cpu.itb.stage2_mmu.stage2_tlb.flushTlbMvaAsid            0                       # Number of times TLB was flushed by MVA & ASID
system.cpu.itb.stage2_mmu.stage2_tlb.flushTlbAsid            0                       # Number of times TLB was flushed by ASID
[...]
system.mem_ctrls.dram.bw_read::.cpu.data      7021524                       # Total read bandwidth from this memory (bytes/s)
system.mem_ctrls.dram.bw_read::total         11234438                       # Total read bandwidth from this memory (bytes/s)
system.mem_ctrls.dram.bw_inst_read::.cpu.inst      4212914                       # Instruction read bandwidth from this memory (bytes/s)
system.mem_ctrls.dram.bw_inst_read::total      4212914                       # Instruction read bandwidth from this memory (bytes/s)
system.mem_ctrls.dram.bw_total::.cpu.inst      4212914                       # Total bandwidth to/from this memory (bytes/s)
system.mem_ctrls.dram.bw_total::.cpu.data      7021524                       # Total bandwidth to/from this memory (bytes/s)
system.mem_ctrls.dram.bw_total::total        11234438                       # Total bandwidth to/from this memory (bytes/s)
system.mem_ctrls.dram.readBursts                 1824                       # Number of DRAM read bursts
system.mem_ctrls.dram.writeBursts                   0                       # Number of DRAM write bursts
system.mem_ctrls.dram.perBankRdBursts::0          250                       # Per bank write bursts
system.mem_ctrls.dram.perBankRdBursts::1          168                       # Per bank write bursts
system.mem_ctrls.dram.perBankRdBursts::2           67                       # Per bank write bursts
system.mem_ctrls.dram.perBankRdBursts::3           84                       # Per bank write bursts
system.mem_ctrls.dram.perBankRdBursts::4          114                       # Per bank write bursts
system.mem_ctrls.dram.perBankRdBursts::5          136                       # Per bank write bursts
system.mem_ctrls.dram.perBankRdBursts::6          123                       # Per bank write bursts
system.mem_ctrls.dram.perBankRdBursts::7           21                       # Per bank write bursts
system.mem_ctrls.dram.perBankRdBursts::8           63                       # Per bank write bursts
system.mem_ctrls.dram.perBankRdBursts::9           85                       # Per bank write bursts
system.mem_ctrls.dram.perBankRdBursts::10           33                       # Per bank write bursts
system.mem_ctrls.dram.perBankRdBursts::11           42                       # Per bank write bursts
system.mem_ctrls.dram.perBankRdBursts::12          125                       # Per bank write bursts
system.mem_ctrls.dram.perBankRdBursts::13          195                       # Per bank write bursts
system.mem_ctrls.dram.perBankRdBursts::14          159                       # Per bank write bursts
system.mem_ctrls.dram.perBankRdBursts::15          159                       # Per bank write bursts
system.mem_ctrls.dram.perBankWrBursts::0            0                       # Per bank write bursts
system.mem_ctrls.dram.perBankWrBursts::1            0                       # Per bank write bursts
system.mem_ctrls.dram.perBankWrBursts::2            0                       # Per bank write bursts
system.mem_ctrls.dram.perBankWrBursts::3            0                       # Per bank write bursts
system.mem_ctrls.dram.perBankWrBursts::4            0                       # Per bank write bursts
system.mem_ctrls.dram.perBankWrBursts::5            0                       # Per bank write bursts
system.mem_ctrls.dram.perBankWrBursts::6            0                       # Per bank write bursts
system.mem_ctrls.dram.perBankWrBursts::7            0                       # Per bank write bursts
system.mem_ctrls.dram.perBankWrBursts::8            0                       # Per bank write bursts
system.mem_ctrls.dram.perBankWrBursts::9            0                       # Per bank write bursts
system.mem_ctrls.dram.perBankWrBursts::10            0                       # Per bank write bursts
system.mem_ctrls.dram.perBankWrBursts::11            0                       # Per bank write bursts
system.mem_ctrls.dram.perBankWrBursts::12            0                       # Per bank write bursts
system.mem_ctrls.dram.perBankWrBursts::13            0                       # Per bank write bursts
system.mem_ctrls.dram.perBankWrBursts::14            0                       # Per bank write bursts
system.mem_ctrls.dram.perBankWrBursts::15            0                       # Per bank write bursts
system.mem_ctrls.dram.totQLat                17755500                       # Total ticks spent queuing
system.mem_ctrls.dram.totBusLat               9120000                       # Total ticks spent in databus transfers
system.mem_ctrls.dram.totMemAccLat           51955500                       # Total ticks spent from burst creation until serviced by the DRAM
system.mem_ctrls.dram.avgQLat                 9734.38                       # Average queueing delay per DRAM burst
system.mem_ctrls.dram.avgBusLat               5000.00                       # Average bus latency per DRAM burst
system.mem_ctrls.dram.avgMemAccLat           28484.38                       # Average memory access latency per DRAM burst
system.mem_ctrls.dram.readRowHits                1260                       # Number of row buffer hits during reads
system.mem_ctrls.dram.writeRowHits                  0                       # Number of row buffer hits during writes
system.mem_ctrls.dram.readRowHitRate            69.08                       # Row buffer hit rate for reads
system.mem_ctrls.dram.writeRowHitRate             nan                       # Row buffer hit rate for writes
system.mem_ctrls.dram.bytesPerActivate::samples          554                       # Bytes accessed per row activation
system.mem_ctrls.dram.bytesPerActivate::mean   205.631769                       # Bytes accessed per row activation
system.mem_ctrls.dram.bytesPerActivate::gmean   158.564241                       # Bytes accessed per row activation
system.mem_ctrls.dram.bytesPerActivate::stdev   198.671159                       # Bytes accessed per row activation
system.mem_ctrls.dram.bytesPerActivate::0-127          101     18.23%     18.23% # Bytes accessed per row activation
system.mem_ctrls.dram.bytesPerActivate::128-255          360     64.98%     83.21% # Bytes accessed per row activation
system.mem_ctrls.dram.bytesPerActivate::256-383           36      6.50%     89.71% # Bytes accessed per row activation
system.mem_ctrls.dram.bytesPerActivate::384-511           15      2.71%     92.42% # Bytes accessed per row activation
system.mem_ctrls.dram.bytesPerActivate::512-639           10      1.81%     94.22% # Bytes accessed per row activation
system.mem_ctrls.dram.bytesPerActivate::640-767            6      1.08%     95.31% # Bytes accessed per row activation
system.mem_ctrls.dram.bytesPerActivate::768-895            5      0.90%     96.21% # Bytes accessed per row activation
system.mem_ctrls.dram.bytesPerActivate::896-1023            5      0.90%     97.11% # Bytes accessed per row activation
system.mem_ctrls.dram.bytesPerActivate::1024-1151           16      2.89%    100.00% # Bytes accessed per row activation
system.mem_ctrls.dram.bytesPerActivate::total          554                       # Bytes accessed per row activation
system.mem_ctrls.dram.bytesRead                116736                       # Total number of bytes read from DRAM
system.mem_ctrls.dram.bytesWritten                  0                       # Total number of bytes written to DRAM
system.mem_ctrls.dram.avgRdBW               11.234438                       # Average DRAM read bandwidth in MiBytes/s
system.mem_ctrls.dram.avgWrBW                       0                       # Average DRAM write bandwidth in MiBytes/s
system.mem_ctrls.dram.peakBW                 12800.00                       # Theoretical peak bandwidth in MiByte/s
system.mem_ctrls.dram.busUtil                    0.09                       # Data bus utilization in percentage
system.mem_ctrls.dram.busUtilRead                0.09                       # Data bus utilization in percentage for reads
system.mem_ctrls.dram.busUtilWrite               0.00                       # Data bus utilization in percentage for writes
system.mem_ctrls.dram.pageHitRate               69.08                       # Row buffer hit rate, read and write combined
system.mem_ctrls.dram.power_state.pwrStateResidencyTicks::UNDEFINED  10390907000                       # Cumulative time (in ticks) in various power states
system.mem_ctrls.dram.rank0.actEnergy         2249100                       # Energy for activate commands per rank (pJ)
system.mem_ctrls.dram.rank0.preEnergy         1187835                       # Energy for precharge commands per rank (pJ)
system.mem_ctrls.dram.rank0.readEnergy        6875820                       # Energy for read commands per rank (pJ)
system.mem_ctrls.dram.rank0.writeEnergy             0                       # Energy for write commands per rank (pJ)
system.mem_ctrls.dram.rank0.refreshEnergy 819929760.000000                       # Energy for refresh commands per rank (pJ)
system.mem_ctrls.dram.rank0.actBackEnergy    719161020                       # Energy for active background per rank (pJ)
system.mem_ctrls.dram.rank0.preBackEnergy   3384499200                       # Energy for precharge background per rank (pJ)
system.mem_ctrls.dram.rank0.actPowerDownEnergy            0                       # Energy for active power-down per rank (pJ)
system.mem_ctrls.dram.rank0.prePowerDownEnergy            0                       # Energy for precharge power-down per rank (pJ)
system.mem_ctrls.dram.rank0.selfRefreshEnergy            0                       # Energy for self refresh per rank (pJ)
system.mem_ctrls.dram.rank0.totalEnergy    4933902735                       # Total energy per rank (pJ)
system.mem_ctrls.dram.rank0.averagePower   474.828880                       # Core power per rank (mW)
system.mem_ctrls.dram.rank0.totalIdleTime            0                       # Total Idle time Per DRAM Rank
system.mem_ctrls.dram.rank0.pwrStateTime::IDLE   8792461250                       # Time in different power states
system.mem_ctrls.dram.rank0.pwrStateTime::REF    346840000                       # Time in different power states
system.mem_ctrls.dram.rank0.pwrStateTime::SREF            0                       # Time in different power states
system.mem_ctrls.dram.rank0.pwrStateTime::PRE_PDN            0                       # Time in different power states
system.mem_ctrls.dram.rank0.pwrStateTime::ACT   1251605750                       # Time in different power states
system.mem_ctrls.dram.rank0.pwrStateTime::ACT_PDN            0                       # Time in different power states
system.mem_ctrls.dram.rank1.actEnergy         1777860                       # Energy for activate commands per rank (pJ)
system.mem_ctrls.dram.rank1.preEnergy          914595                       # Energy for precharge commands per rank (pJ)
system.mem_ctrls.dram.rank1.readEnergy        6147540                       # Energy for read commands per rank (pJ)
system.mem_ctrls.dram.rank1.writeEnergy             0                       # Energy for write commands per rank (pJ)
system.mem_ctrls.dram.rank1.refreshEnergy 819929760.000000                       # Energy for refresh commands per rank (pJ)
system.mem_ctrls.dram.rank1.actBackEnergy    569789670                       # Energy for active background per rank (pJ)
system.mem_ctrls.dram.rank1.preBackEnergy   3510285600                       # Energy for precharge background per rank (pJ)
system.mem_ctrls.dram.rank1.actPowerDownEnergy            0                       # Energy for active power-down per rank (pJ)
system.mem_ctrls.dram.rank1.prePowerDownEnergy            0                       # Energy for precharge power-down per rank (pJ)
system.mem_ctrls.dram.rank1.selfRefreshEnergy            0                       # Energy for self refresh per rank (pJ)
system.mem_ctrls.dram.rank1.totalEnergy    4908845025                       # Total energy per rank (pJ)
system.mem_ctrls.dram.rank1.averagePower   472.417377                       # Core power per rank (mW)
system.mem_ctrls.dram.rank1.totalIdleTime            0                       # Total Idle time Per DRAM Rank
system.mem_ctrls.dram.rank1.pwrStateTime::IDLE   9120881250                       # Time in different power states
system.mem_ctrls.dram.rank1.pwrStateTime::REF    346840000                       # Time in different power states
system.mem_ctrls.dram.rank1.pwrStateTime::SREF            0                       # Time in different power states
system.mem_ctrls.dram.rank1.pwrStateTime::PRE_PDN            0                       # Time in different power states
system.mem_ctrls.dram.rank1.pwrStateTime::ACT    923185750                       # Time in different power states
system.mem_ctrls.dram.rank1.pwrStateTime::ACT_PDN            0                       # Time in different power states
system.mem_ctrls.power_state.pwrStateResidencyTicks::UNDEFINED  10390907000                       # Cumulative time (in ticks) in various power states
system.membus.trans_dist::ReadResp                987                       # Transaction distribution
system.membus.trans_dist::ReadExReq               837                       # Transaction distribution
system.membus.trans_dist::ReadExResp              837                       # Transaction distribution
system.membus.trans_dist::ReadSharedReq           987                       # Transaction distribution
system.membus.pkt_count_system.l2.mem_side_port::system.mem_ctrls.port         3648                       # Packet count per connected requestor and responder (bytes)
system.membus.pkt_count::total                   3648                       # Packet count per connected requestor and responder (bytes)
system.membus.pkt_size_system.l2.mem_side_port::system.mem_ctrls.port       116736                       # Cumulative packet size per connected requestor and responder (bytes)
system.membus.pkt_size::total                  116736                       # Cumulative packet size per connected requestor and responder (bytes)
system.membus.snoops                                0                       # Total snoops (count)
system.membus.snoopTraffic                          0                       # Total snoop traffic (bytes)
system.membus.snoop_fanout::samples              1824                       # Request fanout histogram
system.membus.snoop_fanout::mean                    0                       # Request fanout histogram
system.membus.snoop_fanout::stdev                   0                       # Request fanout histogram
system.membus.snoop_fanout::underflows              0      0.00%      0.00% # Request fanout histogram
system.membus.snoop_fanout::0                    1824    100.00%    100.00% # Request fanout histogram
system.membus.snoop_fanout::1                       0      0.00%    100.00% # Request fanout histogram
system.membus.snoop_fanout::overflows               0      0.00%    100.00% # Request fanout histogram
system.membus.snoop_fanout::min_value               0                       # Request fanout histogram
system.membus.snoop_fanout::max_value               0                       # Request fanout histogram
system.membus.snoop_fanout::total                1824                       # Request fanout histogram
system.membus.power_state.pwrStateResidencyTicks::UNDEFINED  10390907000                       # Cumulative time (in ticks) in various power states
system.membus.reqLayer0.occupancy             2270000                       # Layer occupancy (ticks)
system.membus.reqLayer0.utilization               0.0                       # Layer utilization (%)
system.membus.respLayer1.occupancy            9703500                       # Layer occupancy (ticks)
system.membus.respLayer1.utilization              0.1                       # Layer utilization (%)
system.tol2bus.trans_dist::ReadResp             23068                       # Transaction distribution
system.tol2bus.trans_dist::WritebackDirty        19286                       # Transaction distribution
system.tol2bus.trans_dist::WritebackClean          426                       # Transaction distribution
system.tol2bus.trans_dist::CleanEvict            3158                       # Transaction distribution
system.tol2bus.trans_dist::ReadExReq             1139                       # Transaction distribution
system.tol2bus.trans_dist::ReadExResp            1139                       # Transaction distribution
system.tol2bus.trans_dist::ReadCleanReq           886                       # Transaction distribution
system.tol2bus.trans_dist::ReadSharedReq        22182                       # Transaction distribution
system.tol2bus.pkt_count_system.cpu.icache.mem_side_port::system.l2.cpu_side_port         2198                       # Packet count per connected requestor and responder (bytes)
system.tol2bus.pkt_count_system.cpu.dcache.mem_side_port::system.l2.cpu_side_port        69086                       # Packet count per connected requestor and responder (bytes)
system.tol2bus.pkt_count::total                 71284                       # Packet count per connected requestor and responder (bytes)
system.tol2bus.pkt_size_system.cpu.icache.mem_side_port::system.l2.cpu_side_port        83968                       # Cumulative packet size per connected requestor and responder (bytes)
system.tol2bus.pkt_size_system.cpu.dcache.mem_side_port::system.l2.cpu_side_port      2726848                       # Cumulative packet size per connected requestor and responder (bytes)
system.tol2bus.pkt_size::total                2810816                       # Cumulative packet size per connected requestor and responder (bytes)
system.tol2bus.snoops                               0                       # Total snoops (count)
system.tol2bus.snoopTraffic                         0                       # Total snoop traffic (bytes)
system.tol2bus.snoop_fanout::samples            24207                       # Request fanout histogram
system.tol2bus.snoop_fanout::mean            0.005907                       # Request fanout histogram
system.tol2bus.snoop_fanout::stdev           0.076634                       # Request fanout histogram
system.tol2bus.snoop_fanout::underflows             0      0.00%      0.00% # Request fanout histogram
system.tol2bus.snoop_fanout::0                  24064     99.41%     99.41% # Request fanout histogram
system.tol2bus.snoop_fanout::1                    143      0.59%    100.00% # Request fanout histogram
system.tol2bus.snoop_fanout::2                      0      0.00%    100.00% # Request fanout histogram
system.tol2bus.snoop_fanout::overflows              0      0.00%    100.00% # Request fanout histogram
system.tol2bus.snoop_fanout::min_value              0                       # Request fanout histogram
system.tol2bus.snoop_fanout::max_value              1                       # Request fanout histogram
system.tol2bus.snoop_fanout::total              24207                       # Request fanout histogram
system.tol2bus.power_state.pwrStateResidencyTicks::UNDEFINED  10390907000                       # Cumulative time (in ticks) in various power states
system.tol2bus.reqLayer0.occupancy           43250500                       # Layer occupancy (ticks)
system.tol2bus.reqLayer0.utilization              0.4                       # Layer utilization (%)
system.tol2bus.respLayer0.occupancy           1329499                       # Layer occupancy (ticks)
system.tol2bus.respLayer0.utilization             0.0                       # Layer utilization (%)
system.tol2bus.respLayer1.occupancy          34986989                       # Layer occupancy (ticks)
system.tol2bus.respLayer1.utilization             0.3                       # Layer utilization (%)
system.voltage_domain.voltage                       1                       # Voltage in Volts

---------- End Simulation Statistics   ----------
