
---------- Begin Simulation Statistics ----------
final_tick                                 7160291500                       # Number of ticks from beginning of simulation (restored from checkpoints and never reset)
host_inst_rate                                 118353                       # Simulator instruction rate (inst/s)
host_mem_usage                                 664040                       # Number of bytes of host memory used
host_op_rate                                   149629                       # Simulator op (including micro ops) rate (op/s)
host_seconds                                   128.90                       # Real time elapsed on the host
host_tick_rate                               55548308                       # Simulator tick rate (ticks/s)
sim_freq                                 1000000000000                       # Frequency of simulated ticks
sim_insts                                    15255958                       # Number of instructions simulated
sim_ops                                      19287511                       # Number of ops (including micro ops) simulated
sim_seconds                                  0.007160                       # Number of seconds simulated
sim_ticks                                  7160291500                       # Number of ticks simulated
system.cpu.cc_regfile_reads                  81884074                       # number of cc regfile reads
system.cpu.cc_regfile_writes                 10122489                       # number of cc regfile writes
system.cpu.committedInsts                    15255958                       # Number of Instructions Simulated
system.cpu.committedOps                      19287511                       # Number of Ops (including micro ops) Simulated
system.cpu.cpi                               0.938688                       # CPI: Cycles Per Instruction
system.cpu.cpi_total                         0.938688                       # CPI: Total CPI of All Threads
system.cpu.idleCycles                           48670                       # Total number of cycles that the CPU has spent unscheduled due to idling
system.cpu.iew.branchMispredicts               365897                       # Number of branch mispredicts detected at execute
system.cpu.iew.exec_branches                  4462094                       # Number of branches executed
system.cpu.iew.exec_nop                             0                       # number of nop insts executed
system.cpu.iew.exec_rate                     1.591932                       # Inst execution rate
system.cpu.iew.exec_refs                      7961927                       # number of memory reference insts executed
system.cpu.iew.exec_stores                    2932653                       # Number of stores executed
system.cpu.iew.exec_swp                             0                       # number of swp insts executed
system.cpu.iew.iewBlockCycles                  760887                       # Number of cycles IEW is blocking
system.cpu.iew.iewDispLoadInsts               5565257                       # Number of dispatched load instructions
system.cpu.iew.iewDispNonSpecInsts              61302                       # Number of dispatched non-speculative instructions
system.cpu.iew.iewDispSquashedInsts            258581                       # Number of squashed instructions skipped by dispatch
system.cpu.iew.iewDispStoreInsts              3172073                       # Number of dispatched store instructions
system.cpu.iew.iewDispatchedInsts            25626673                       # Number of instructions dispatched to IQ
system.cpu.iew.iewExecLoadInsts               5029274                       # Number of load instructions executed
system.cpu.iew.iewExecSquashedInsts            350040                       # Number of squashed instructions skipped in execute
system.cpu.iew.iewExecutedInsts              22797403                       # Number of executed instructions
system.cpu.iew.iewIQFullEvents                  20220                       # Number of times the IQ has become full, causing a stall
system.cpu.iew.iewIdleCycles                        0                       # Number of cycles IEW is idle
system.cpu.iew.iewLSQFullEvents                798235                       # Number of times the LSQ has become full, causing a stall
system.cpu.iew.iewSquashCycles                 267163                       # Number of cycles IEW is squashing
system.cpu.iew.iewUnblockCycles                825066                       # Number of cycles IEW is unblocking
system.cpu.iew.memOrderViolationEvents            335                       # Number of memory order violations
system.cpu.iew.predictedNotTakenIncorrect       142324                       # Number of branches that were predicted not taken incorrectly
system.cpu.iew.predictedTakenIncorrect         223573                       # Number of branches that were predicted taken incorrectly
system.cpu.iew.wb_consumers                  22156115                       # num instructions consuming a value
system.cpu.iew.wb_count                      22351819                       # cumulative count of insts written-back
system.cpu.iew.wb_fanout                     0.539759                       # average fanout of values written-back
system.cpu.iew.wb_producers                  11958966                       # num instructions producing a value
system.cpu.iew.wb_rate                       1.560818                       # insts written-back per cycle
system.cpu.iew.wb_sent                       22451565                       # cumulative count of insts sent to commit
system.cpu.int_regfile_reads                 23729828                       # number of integer regfile reads
system.cpu.int_regfile_writes                13427168                       # number of integer regfile writes
system.cpu.ipc                               1.065317                       # IPC: Instructions Per Cycle
system.cpu.ipc_total                         1.065317                       # IPC: Total IPC of All Threads
system.cpu.iq.FU_type_0::No_OpClass                16      0.00%      0.00% # Type of FU issued
system.cpu.iq.FU_type_0::IntAlu              15023508     64.90%     64.90% # Type of FU issued
system.cpu.iq.FU_type_0::IntMult                28143      0.12%     65.03% # Type of FU issued
system.cpu.iq.FU_type_0::IntDiv                     0      0.00%     65.03% # Type of FU issued
system.cpu.iq.FU_type_0::FloatAdd                   0      0.00%     65.03% # Type of FU issued
system.cpu.iq.FU_type_0::FloatCmp                   0      0.00%     65.03% # Type of FU issued
system.cpu.iq.FU_type_0::FloatCvt                   0      0.00%     65.03% # Type of FU issued
system.cpu.iq.FU_type_0::FloatMult                  0      0.00%     65.03% # Type of FU issued
system.cpu.iq.FU_type_0::FloatMultAcc               0      0.00%     65.03% # Type of FU issued
system.cpu.iq.FU_type_0::FloatDiv                   0      0.00%     65.03% # Type of FU issued
system.cpu.iq.FU_type_0::FloatMisc                  0      0.00%     65.03% # Type of FU issued
system.cpu.iq.FU_type_0::FloatSqrt                  0      0.00%     65.03% # Type of FU issued
system.cpu.iq.FU_type_0::SimdAdd                    0      0.00%     65.03% # Type of FU issued
system.cpu.iq.FU_type_0::SimdAddAcc                 0      0.00%     65.03% # Type of FU issued
system.cpu.iq.FU_type_0::SimdAlu                    0      0.00%     65.03% # Type of FU issued
system.cpu.iq.FU_type_0::SimdCmp                    0      0.00%     65.03% # Type of FU issued
system.cpu.iq.FU_type_0::SimdCvt                    0      0.00%     65.03% # Type of FU issued
system.cpu.iq.FU_type_0::SimdMisc                   0      0.00%     65.03% # Type of FU issued
system.cpu.iq.FU_type_0::SimdMult                   0      0.00%     65.03% # Type of FU issued
system.cpu.iq.FU_type_0::SimdMultAcc                0      0.00%     65.03% # Type of FU issued
system.cpu.iq.FU_type_0::SimdShift                  0      0.00%     65.03% # Type of FU issued
system.cpu.iq.FU_type_0::SimdShiftAcc               0      0.00%     65.03% # Type of FU issued
system.cpu.iq.FU_type_0::SimdDiv                    0      0.00%     65.03% # Type of FU issued
system.cpu.iq.FU_type_0::SimdSqrt                   0      0.00%     65.03% # Type of FU issued
system.cpu.iq.FU_type_0::SimdFloatAdd               0      0.00%     65.03% # Type of FU issued
system.cpu.iq.FU_type_0::SimdFloatAlu               0      0.00%     65.03% # Type of FU issued
system.cpu.iq.FU_type_0::SimdFloatCmp               0      0.00%     65.03% # Type of FU issued
system.cpu.iq.FU_type_0::SimdFloatCvt               0      0.00%     65.03% # Type of FU issued
system.cpu.iq.FU_type_0::SimdFloatDiv               0      0.00%     65.03% # Type of FU issued
system.cpu.iq.FU_type_0::SimdFloatMisc              0      0.00%     65.03% # Type of FU issued
system.cpu.iq.FU_type_0::SimdFloatMult              0      0.00%     65.03% # Type of FU issued
system.cpu.iq.FU_type_0::SimdFloatMultAcc            0      0.00%     65.03% # Type of FU issued
system.cpu.iq.FU_type_0::SimdFloatSqrt              0      0.00%     65.03% # Type of FU issued
system.cpu.iq.FU_type_0::SimdReduceAdd              0      0.00%     65.03% # Type of FU issued
system.cpu.iq.FU_type_0::SimdReduceAlu              0      0.00%     65.03% # Type of FU issued
system.cpu.iq.FU_type_0::SimdReduceCmp              0      0.00%     65.03% # Type of FU issued
system.cpu.iq.FU_type_0::SimdFloatReduceAdd            0      0.00%     65.03% # Type of FU issued
system.cpu.iq.FU_type_0::SimdFloatReduceCmp            0      0.00%     65.03% # Type of FU issued
system.cpu.iq.FU_type_0::SimdAes                    0      0.00%     65.03% # Type of FU issued
system.cpu.iq.FU_type_0::SimdAesMix                 0      0.00%     65.03% # Type of FU issued
system.cpu.iq.FU_type_0::SimdSha1Hash               0      0.00%     65.03% # Type of FU issued
system.cpu.iq.FU_type_0::SimdSha1Hash2              0      0.00%     65.03% # Type of FU issued
system.cpu.iq.FU_type_0::SimdSha256Hash             0      0.00%     65.03% # Type of FU issued
system.cpu.iq.FU_type_0::SimdSha256Hash2            0      0.00%     65.03% # Type of FU issued
system.cpu.iq.FU_type_0::SimdShaSigma2              0      0.00%     65.03% # Type of FU issued
system.cpu.iq.FU_type_0::SimdShaSigma3              0      0.00%     65.03% # Type of FU issued
system.cpu.iq.FU_type_0::SimdPredAlu                0      0.00%     65.03% # Type of FU issued
system.cpu.iq.FU_type_0::MemRead              5135308     22.19%     87.21% # Type of FU issued
system.cpu.iq.FU_type_0::MemWrite             2960468     12.79%    100.00% # Type of FU issued
system.cpu.iq.FU_type_0::FloatMemRead               0      0.00%    100.00% # Type of FU issued
system.cpu.iq.FU_type_0::FloatMemWrite              0      0.00%    100.00% # Type of FU issued
system.cpu.iq.FU_type_0::IprAccess                  0      0.00%    100.00% # Type of FU issued
system.cpu.iq.FU_type_0::InstPrefetch               0      0.00%    100.00% # Type of FU issued
system.cpu.iq.FU_type_0::total               23147443                       # Type of FU issued
system.cpu.iq.fp_alu_accesses                       0                       # Number of floating point alu accesses
system.cpu.iq.fp_inst_queue_reads                   0                       # Number of floating instruction queue reads
system.cpu.iq.fp_inst_queue_wakeup_accesses            0                       # Number of floating instruction queue wakeup accesses
system.cpu.iq.fp_inst_queue_writes                  0                       # Number of floating instruction queue writes
system.cpu.iq.fu_busy_cnt                      368897                       # FU busy when requested
system.cpu.iq.fu_busy_rate                   0.015937                       # FU busy rate (busy events/executed inst)
system.cpu.iq.fu_full::No_OpClass                   0      0.00%      0.00% # attempts to use FU when none available
system.cpu.iq.fu_full::IntAlu                   88349     23.95%     23.95% # attempts to use FU when none available
system.cpu.iq.fu_full::IntMult                      0      0.00%     23.95% # attempts to use FU when none available
system.cpu.iq.fu_full::IntDiv                       0      0.00%     23.95% # attempts to use FU when none available
system.cpu.iq.fu_full::FloatAdd                     0      0.00%     23.95% # attempts to use FU when none available
system.cpu.iq.fu_full::FloatCmp                     0      0.00%     23.95% # attempts to use FU when none available
system.cpu.iq.fu_full::FloatCvt                     0      0.00%     23.95% # attempts to use FU when none available
system.cpu.iq.fu_full::FloatMult                    0      0.00%     23.95% # attempts to use FU when none available
system.cpu.iq.fu_full::FloatMultAcc                 0      0.00%     23.95% # attempts to use FU when none available
system.cpu.iq.fu_full::FloatDiv                     0      0.00%     23.95% # attempts to use FU when none available
system.cpu.iq.fu_full::FloatMisc                    0      0.00%     23.95% # attempts to use FU when none available
system.cpu.iq.fu_full::FloatSqrt                    0      0.00%     23.95% # attempts to use FU when none available
system.cpu.iq.fu_full::SimdAdd                      0      0.00%     23.95% # attempts to use FU when none available
system.cpu.iq.fu_full::SimdAddAcc                   0      0.00%     23.95% # attempts to use FU when none available
system.cpu.iq.fu_full::SimdAlu                      0      0.00%     23.95% # attempts to use FU when none available
system.cpu.iq.fu_full::SimdCmp                      0      0.00%     23.95% # attempts to use FU when none available
system.cpu.iq.fu_full::SimdCvt                      0      0.00%     23.95% # attempts to use FU when none available
system.cpu.iq.fu_full::SimdMisc                     0      0.00%     23.95% # attempts to use FU when none available
system.cpu.iq.fu_full::SimdMult                     0      0.00%     23.95% # attempts to use FU when none available
system.cpu.iq.fu_full::SimdMultAcc                  0      0.00%     23.95% # attempts to use FU when none available
system.cpu.iq.fu_full::SimdShift                    0      0.00%     23.95% # attempts to use FU when none available
system.cpu.iq.fu_full::SimdShiftAcc                 0      0.00%     23.95% # attempts to use FU when none available
system.cpu.iq.fu_full::SimdDiv                      0      0.00%     23.95% # attempts to use FU when none available
system.cpu.iq.fu_full::SimdSqrt                     0      0.00%     23.95% # attempts to use FU when none available
system.cpu.iq.fu_full::SimdFloatAdd                 0      0.00%     23.95% # attempts to use FU when none available
system.cpu.iq.fu_full::SimdFloatAlu                 0      0.00%     23.95% # attempts to use FU when none available
system.cpu.iq.fu_full::SimdFloatCmp                 0      0.00%     23.95% # attempts to use FU when none available
system.cpu.iq.fu_full::SimdFloatCvt                 0      0.00%     23.95% # attempts to use FU when none available
system.cpu.iq.fu_full::SimdFloatDiv                 0      0.00%     23.95% # attempts to use FU when none available
system.cpu.iq.fu_full::SimdFloatMisc                0      0.00%     23.95% # attempts to use FU when none available
system.cpu.iq.fu_full::SimdFloatMult                0      0.00%     23.95% # attempts to use FU when none available
system.cpu.iq.fu_full::SimdFloatMultAcc             0      0.00%     23.95% # attempts to use FU when none available
system.cpu.iq.fu_full::SimdFloatSqrt                0      0.00%     23.95% # attempts to use FU when none available
system.cpu.iq.fu_full::SimdReduceAdd                0      0.00%     23.95% # attempts to use FU when none available
system.cpu.iq.fu_full::SimdReduceAlu                0      0.00%     23.95% # attempts to use FU when none available
system.cpu.iq.fu_full::SimdReduceCmp                0      0.00%     23.95% # attempts to use FU when none available
system.cpu.iq.fu_full::SimdFloatReduceAdd            0      0.00%     23.95% # attempts to use FU when none available
system.cpu.iq.fu_full::SimdFloatReduceCmp            0      0.00%     23.95% # attempts to use FU when none available
system.cpu.iq.fu_full::SimdAes                      0      0.00%     23.95% # attempts to use FU when none available
system.cpu.iq.fu_full::SimdAesMix                   0      0.00%     23.95% # attempts to use FU when none available
system.cpu.iq.fu_full::SimdSha1Hash                 0      0.00%     23.95% # attempts to use FU when none available
system.cpu.iq.fu_full::SimdSha1Hash2                0      0.00%     23.95% # attempts to use FU when none available
system.cpu.iq.fu_full::SimdSha256Hash               0      0.00%     23.95% # attempts to use FU when none available
system.cpu.iq.fu_full::SimdSha256Hash2              0      0.00%     23.95% # attempts to use FU when none available
system.cpu.iq.fu_full::SimdShaSigma2                0      0.00%     23.95% # attempts to use FU when none available
system.cpu.iq.fu_full::SimdShaSigma3                0      0.00%     23.95% # attempts to use FU when none available
system.cpu.iq.fu_full::SimdPredAlu                  0      0.00%     23.95% # attempts to use FU when none available
system.cpu.iq.fu_full::MemRead                 119646     32.43%     56.38% # attempts to use FU when none available
system.cpu.iq.fu_full::MemWrite                160902     43.62%    100.00% # attempts to use FU when none available
system.cpu.iq.fu_full::FloatMemRead                 0      0.00%    100.00% # attempts to use FU when none available
system.cpu.iq.fu_full::FloatMemWrite                0      0.00%    100.00% # attempts to use FU when none available
system.cpu.iq.fu_full::IprAccess                    0      0.00%    100.00% # attempts to use FU when none available
system.cpu.iq.fu_full::InstPrefetch                 0      0.00%    100.00% # attempts to use FU when none available
system.cpu.iq.int_alu_accesses               23516324                       # Number of integer alu accesses
system.cpu.iq.int_inst_queue_reads           60988716                       # Number of integer instruction queue reads
system.cpu.iq.int_inst_queue_wakeup_accesses     22351819                       # Number of integer instruction queue wakeup accesses
system.cpu.iq.int_inst_queue_writes          31966162                       # Number of integer instruction queue writes
system.cpu.iq.iqInstsAdded                   25525344                       # Number of instructions added to the IQ (excludes non-spec)
system.cpu.iq.iqInstsIssued                  23147443                       # Number of instructions issued
system.cpu.iq.iqNonSpecInstsAdded              101329                       # Number of non-speculative instructions added to the IQ
system.cpu.iq.iqSquashedInstsExamined         6339161                       # Number of squashed instructions iterated over during squash; mainly for profiling
system.cpu.iq.iqSquashedInstsIssued             53019                       # Number of squashed instructions issued
system.cpu.iq.iqSquashedNonSpecRemoved          11253                       # Number of squashed non-spec instructions that were removed
system.cpu.iq.iqSquashedOperandsExamined     14142661                       # Number of squashed operands that are examined and possibly removed from graph
system.cpu.iq.issued_per_cycle::samples      14271914                       # Number of insts issued each cycle
system.cpu.iq.issued_per_cycle::mean         1.621888                       # Number of insts issued each cycle
system.cpu.iq.issued_per_cycle::stdev        1.993363                       # Number of insts issued each cycle
system.cpu.iq.issued_per_cycle::underflows            0      0.00%      0.00% # Number of insts issued each cycle
system.cpu.iq.issued_per_cycle::0             6612659     46.33%     46.33% # Number of insts issued each cycle
system.cpu.iq.issued_per_cycle::1             1886756     13.22%     59.55% # Number of insts issued each cycle
system.cpu.iq.issued_per_cycle::2             1703490     11.94%     71.49% # Number of insts issued each cycle
system.cpu.iq.issued_per_cycle::3             1226377      8.59%     80.08% # Number of insts issued each cycle
system.cpu.iq.issued_per_cycle::4             1338137      9.38%     89.46% # Number of insts issued each cycle
system.cpu.iq.issued_per_cycle::5              701713      4.92%     94.38% # Number of insts issued each cycle
system.cpu.iq.issued_per_cycle::6              407343      2.85%     97.23% # Number of insts issued each cycle
system.cpu.iq.issued_per_cycle::7              294107      2.06%     99.29% # Number of insts issued each cycle
system.cpu.iq.issued_per_cycle::8              101332      0.71%    100.00% # Number of insts issued each cycle
system.cpu.iq.issued_per_cycle::overflows            0      0.00%    100.00% # Number of insts issued each cycle
system.cpu.iq.issued_per_cycle::min_value            0                       # Number of insts issued each cycle
system.cpu.iq.issued_per_cycle::max_value            8                       # Number of insts issued each cycle
system.cpu.iq.issued_per_cycle::total        14271914                       # Number of insts issued each cycle
system.cpu.iq.rate                           1.616376                       # Inst issue rate
system.cpu.iq.vec_alu_accesses                      0                       # Number of vector alu accesses
system.cpu.iq.vec_inst_queue_reads                  0                       # Number of vector instruction queue reads
system.cpu.iq.vec_inst_queue_wakeup_accesses            0                       # Number of vector instruction queue wakeup accesses
system.cpu.iq.vec_inst_queue_writes                 0                       # Number of vector instruction queue writes
system.cpu.memDep0.conflictingLoads            328932                       # Number of conflicting loads.
system.cpu.memDep0.conflictingStores           408581                       # Number of conflicting stores.
system.cpu.memDep0.insertedLoads              5565257                       # Number of loads inserted to the mem dependence unit.
system.cpu.memDep0.insertedStores             3172073                       # Number of stores inserted to the mem dependence unit.
system.cpu.misc_regfile_reads                53926845                       # number of misc regfile reads
system.cpu.misc_regfile_writes                 160105                       # number of misc regfile writes
system.cpu.numCycles                         14320584                       # number of cpu cycles simulated
system.cpu.numWorkItemsCompleted                    0                       # number of work items this cpu completed
system.cpu.numWorkItemsStarted                      0                       # number of work items this cpu started
system.cpu.timesIdled                             496                       # Number of times that the entire CPU went into an idle state and unscheduled itself
system.cpu.vec_regfile_reads                       16                       # number of vector regfile reads
system.cpu.workload.numSyscalls                 10023                       # Number of system calls
system.membus.snoop_filter.hit_multi_requests            0                       # Number of requests hitting in the snoop filter with multiple (>1) holders of the requested data.
system.membus.snoop_filter.hit_multi_snoops            0                       # Number of snoops hitting in the snoop filter with multiple (>1) holders of the requested data.
system.membus.snoop_filter.hit_single_requests            0                       # Number of requests hitting in the snoop filter with a single holder of the requested data.
system.membus.snoop_filter.hit_single_snoops            0                       # Number of snoops hitting in the snoop filter with a single holder of the requested data.
system.membus.snoop_filter.tot_requests         22293                       # Total number of requests made to the snoop filter.
system.membus.snoop_filter.tot_snoops               0                       # Total number of snoops made to the snoop filter.
system.tol2bus.snoop_filter.hit_multi_requests           80                       # Number of requests hitting in the snoop filter with multiple (>1) holders of the requested data.
system.tol2bus.snoop_filter.hit_multi_snoops            0                       # Number of snoops hitting in the snoop filter with multiple (>1) holders of the requested data.
system.tol2bus.snoop_filter.hit_single_requests       117602                       # Number of requests hitting in the snoop filter with a single holder of the requested data.
system.tol2bus.snoop_filter.hit_single_snoops            0                       # Number of snoops hitting in the snoop filter with a single holder of the requested data.
system.tol2bus.snoop_filter.tot_requests       236654                       # Total number of requests made to the snoop filter.
system.tol2bus.snoop_filter.tot_snoops              0                       # Total number of snoops made to the snoop filter.
system.clk_domain.clock                          1000                       # Clock period in ticks
system.cpu.branchPred.lookups                 6296404                       # Number of BP lookups
system.cpu.branchPred.condPredicted           4250407                       # Number of conditional branches predicted
system.cpu.branchPred.condIncorrect            257267                       # Number of conditional branches incorrect
system.cpu.branchPred.BTBLookups              2468657                       # Number of BTB lookups
system.cpu.branchPred.BTBHits                 2379313                       # Number of BTB hits
system.cpu.branchPred.BTBHitPct             96.380866                       # BTB Hit Percentage
system.cpu.branchPred.RASUsed                  900928                       # Number of times the RAS was used to get a target.
system.cpu.branchPred.RASIncorrect              70239                       # Number of incorrect RAS predictions.
system.cpu.branchPred.indirectLookups          507794                       # Number of indirect predictor lookups.
system.cpu.branchPred.indirectHits             469931                       # Number of indirect target hits.
system.cpu.branchPred.indirectMisses            37863                       # Number of indirect misses.
system.cpu.branchPred.indirectMispredicted         6548                       # Number of mispredicted indirect branches.
system.cpu.commit.commitSquashedInsts         6338258                       # The number of squashed insts skipped by commit
system.cpu.commit.commitNonSpecStalls           90076                       # The number of times commit has been forced to stall to communicate backwards
system.cpu.commit.branchMispredicts            256912                       # The number of times a branch was mispredicted
system.cpu.commit.numCommittedDist::samples     13352171                       # Number of insts commited each cycle
system.cpu.commit.numCommittedDist::mean     1.444522                       # Number of insts commited each cycle
system.cpu.commit.numCommittedDist::stdev     2.359690                       # Number of insts commited each cycle
system.cpu.commit.numCommittedDist::underflows            0      0.00%      0.00% # Number of insts commited each cycle
system.cpu.commit.numCommittedDist::0         7631044     57.15%     57.15% # Number of insts commited each cycle
system.cpu.commit.numCommittedDist::1         1840936     13.79%     70.94% # Number of insts commited each cycle
system.cpu.commit.numCommittedDist::2         1186243      8.88%     79.82% # Number of insts commited each cycle
system.cpu.commit.numCommittedDist::3          607206      4.55%     84.37% # Number of insts commited each cycle
system.cpu.commit.numCommittedDist::4          524818      3.93%     88.30% # Number of insts commited each cycle
system.cpu.commit.numCommittedDist::5          236820      1.77%     90.08% # Number of insts commited each cycle
system.cpu.commit.numCommittedDist::6          254478      1.91%     91.98% # Number of insts commited each cycle
system.cpu.commit.numCommittedDist::7          122777      0.92%     92.90% # Number of insts commited each cycle
system.cpu.commit.numCommittedDist::8          947849      7.10%    100.00% # Number of insts commited each cycle
system.cpu.commit.numCommittedDist::overflows            0      0.00%    100.00% # Number of insts commited each cycle
system.cpu.commit.numCommittedDist::min_value            0                       # Number of insts commited each cycle
system.cpu.commit.numCommittedDist::max_value            8                       # Number of insts commited each cycle
system.cpu.commit.numCommittedDist::total     13352171                       # Number of insts commited each cycle
system.cpu.commit.instsCommitted             15255958                       # Number of instructions committed
system.cpu.commit.opsCommitted               19287511                       # Number of ops (including micro ops) committed
system.cpu.commit.memRefs                     6888069                       # Number of memory references committed
system.cpu.commit.loads                       4099688                       # Number of loads committed
system.cpu.commit.amos                              0                       # Number of atomic instructions committed
system.cpu.commit.membars                       40027                       # Number of memory barriers committed
system.cpu.commit.branches                    3824648                       # Number of branches committed
system.cpu.commit.vector                            0                       # Number of committed Vector instructions.
system.cpu.commit.floating                          0                       # Number of committed floating point instructions.
system.cpu.commit.integer                    16615058                       # Number of committed integer instructions.
system.cpu.commit.functionCalls                475580                       # Number of function calls committed.
system.cpu.commit.committedInstType_0::No_OpClass            0      0.00%      0.00% # Class of committed instruction
system.cpu.commit.committedInstType_0::IntAlu     12374998     64.16%     64.16% # Class of committed instruction
system.cpu.commit.committedInstType_0::IntMult        24444      0.13%     64.29% # Class of committed instruction
system.cpu.commit.committedInstType_0::IntDiv            0      0.00%     64.29% # Class of committed instruction
system.cpu.commit.committedInstType_0::FloatAdd            0      0.00%     64.29% # Class of committed instruction
system.cpu.commit.committedInstType_0::FloatCmp            0      0.00%     64.29% # Class of committed instruction
system.cpu.commit.committedInstType_0::FloatCvt            0      0.00%     64.29% # Class of committed instruction
system.cpu.commit.committedInstType_0::FloatMult            0      0.00%     64.29% # Class of committed instruction
system.cpu.commit.committedInstType_0::FloatMultAcc            0      0.00%     64.29% # Class of committed instruction
system.cpu.commit.committedInstType_0::FloatDiv            0      0.00%     64.29% # Class of committed instruction
system.cpu.commit.committedInstType_0::FloatMisc            0      0.00%     64.29% # Class of committed instruction
system.cpu.commit.committedInstType_0::FloatSqrt            0      0.00%     64.29% # Class of committed instruction
system.cpu.commit.committedInstType_0::SimdAdd            0      0.00%     64.29% # Class of committed instruction
system.cpu.commit.committedInstType_0::SimdAddAcc            0      0.00%     64.29% # Class of committed instruction
system.cpu.commit.committedInstType_0::SimdAlu            0      0.00%     64.29% # Class of committed instruction
system.cpu.commit.committedInstType_0::SimdCmp            0      0.00%     64.29% # Class of committed instruction
system.cpu.commit.committedInstType_0::SimdCvt            0      0.00%     64.29% # Class of committed instruction
system.cpu.commit.committedInstType_0::SimdMisc            0      0.00%     64.29% # Class of committed instruction
system.cpu.commit.committedInstType_0::SimdMult            0      0.00%     64.29% # Class of committed instruction
system.cpu.commit.committedInstType_0::SimdMultAcc            0      0.00%     64.29% # Class of committed instruction
system.cpu.commit.committedInstType_0::SimdShift            0      0.00%     64.29% # Class of committed instruction
system.cpu.commit.committedInstType_0::SimdShiftAcc            0      0.00%     64.29% # Class of committed instruction
system.cpu.commit.committedInstType_0::SimdDiv            0      0.00%     64.29% # Class of committed instruction
system.cpu.commit.committedInstType_0::SimdSqrt            0      0.00%     64.29% # Class of committed instruction
system.cpu.commit.committedInstType_0::SimdFloatAdd            0      0.00%     64.29% # Class of committed instruction
system.cpu.commit.committedInstType_0::SimdFloatAlu            0      0.00%     64.29% # Class of committed instruction
system.cpu.commit.committedInstType_0::SimdFloatCmp            0      0.00%     64.29% # Class of committed instruction
system.cpu.commit.committedInstType_0::SimdFloatCvt            0      0.00%     64.29% # Class of committed instruction
system.cpu.commit.committedInstType_0::SimdFloatDiv            0      0.00%     64.29% # Class of committed instruction
system.cpu.commit.committedInstType_0::SimdFloatMisc            0      0.00%     64.29% # Class of committed instruction
system.cpu.commit.committedInstType_0::SimdFloatMult            0      0.00%     64.29% # Class of committed instruction
system.cpu.commit.committedInstType_0::SimdFloatMultAcc            0      0.00%     64.29% # Class of committed instruction
system.cpu.commit.committedInstType_0::SimdFloatSqrt            0      0.00%     64.29% # Class of committed instruction
system.cpu.commit.committedInstType_0::SimdReduceAdd            0      0.00%     64.29% # Class of committed instruction
system.cpu.commit.committedInstType_0::SimdReduceAlu            0      0.00%     64.29% # Class of committed instruction
system.cpu.commit.committedInstType_0::SimdReduceCmp            0      0.00%     64.29% # Class of committed instruction
system.cpu.commit.committedInstType_0::SimdFloatReduceAdd            0      0.00%     64.29% # Class of committed instruction
system.cpu.commit.committedInstType_0::SimdFloatReduceCmp            0      0.00%     64.29% # Class of committed instruction
system.cpu.commit.committedInstType_0::SimdAes            0      0.00%     64.29% # Class of committed instruction
system.cpu.commit.committedInstType_0::SimdAesMix            0      0.00%     64.29% # Class of committed instruction
system.cpu.commit.committedInstType_0::SimdSha1Hash            0      0.00%     64.29% # Class of committed instruction
system.cpu.commit.committedInstType_0::SimdSha1Hash2            0      0.00%     64.29% # Class of committed instruction
system.cpu.commit.committedInstType_0::SimdSha256Hash            0      0.00%     64.29% # Class of committed instruction
system.cpu.commit.committedInstType_0::SimdSha256Hash2            0      0.00%     64.29% # Class of committed instruction
system.cpu.commit.committedInstType_0::SimdShaSigma2            0      0.00%     64.29% # Class of committed instruction
system.cpu.commit.committedInstType_0::SimdShaSigma3            0      0.00%     64.29% # Class of committed instruction
system.cpu.commit.committedInstType_0::SimdPredAlu            0      0.00%     64.29% # Class of committed instruction
system.cpu.commit.committedInstType_0::MemRead      4099688     21.26%     85.54% # Class of committed instruction
system.cpu.commit.committedInstType_0::MemWrite      2788381     14.46%    100.00% # Class of committed instruction
system.cpu.commit.committedInstType_0::FloatMemRead            0      0.00%    100.00% # Class of committed instruction
system.cpu.commit.committedInstType_0::FloatMemWrite            0      0.00%    100.00% # Class of committed instruction
system.cpu.commit.committedInstType_0::IprAccess            0      0.00%    100.00% # Class of committed instruction
system.cpu.commit.committedInstType_0::InstPrefetch            0      0.00%    100.00% # Class of committed instruction
system.cpu.commit.committedInstType_0::total     19287511                       # Class of committed instruction
system.cpu.commit.commitEligibleSamples        947849                       # number cycles where commit BW limit reached
system.cpu.dcache.demand_hits::.cpu.data      6577779                       # number of demand (read+write) hits
system.cpu.dcache.demand_hits::total          6577779                       # number of demand (read+write) hits
system.cpu.dcache.overall_hits::.cpu.data      6577779                       # number of overall hits
system.cpu.dcache.overall_hits::total         6577779                       # number of overall hits
system.cpu.dcache.demand_misses::.cpu.data       478772                       # number of demand (read+write) misses
system.cpu.dcache.demand_misses::total         478772                       # number of demand (read+write) misses
system.cpu.dcache.overall_misses::.cpu.data       478772                       # number of overall misses
system.cpu.dcache.overall_misses::total        478772                       # number of overall misses
system.cpu.dcache.demand_miss_latency::.cpu.data  14135956487                       # number of demand (read+write) miss cycles
system.cpu.dcache.demand_miss_latency::total  14135956487                       # number of demand (read+write) miss cycles
system.cpu.dcache.overall_miss_latency::.cpu.data  14135956487                       # number of overall miss cycles
system.cpu.dcache.overall_miss_latency::total  14135956487                       # number of overall miss cycles
system.cpu.dcache.demand_accesses::.cpu.data      7056551                       # number of demand (read+write) accesses
system.cpu.dcache.demand_accesses::total      7056551                       # number of demand (read+write) accesses
system.cpu.dcache.overall_accesses::.cpu.data      7056551                       # number of overall (read+write) accesses
system.cpu.dcache.overall_accesses::total      7056551                       # number of overall (read+write) accesses
system.cpu.dcache.demand_miss_rate::.cpu.data     0.067848                       # miss rate for demand accesses
system.cpu.dcache.demand_miss_rate::total     0.067848                       # miss rate for demand accesses
system.cpu.dcache.overall_miss_rate::.cpu.data     0.067848                       # miss rate for overall accesses
system.cpu.dcache.overall_miss_rate::total     0.067848                       # miss rate for overall accesses
system.cpu.dcache.demand_avg_miss_latency::.cpu.data 29525.445279                       # average overall miss latency
system.cpu.dcache.demand_avg_miss_latency::total 29525.445279                       # average overall miss latency
system.cpu.dcache.overall_avg_miss_latency::.cpu.data 29525.445279                       # average overall miss latency
system.cpu.dcache.overall_avg_miss_latency::total 29525.445279                       # average overall miss latency
system.cpu.dcache.blocked_cycles::no_mshrs         3319                       # number of cycles access was blocked
system.cpu.dcache.blocked_cycles::no_targets            0                       # number of cycles access was blocked
system.cpu.dcache.blocked::no_mshrs               337                       # number of cycles access was blocked
system.cpu.dcache.blocked::no_targets               0                       # number of cycles access was blocked
system.cpu.dcache.avg_blocked_cycles::no_mshrs     9.848665                       # average number of cycles each access was blocked
system.cpu.dcache.avg_blocked_cycles::no_targets          nan                       # average number of cycles each access was blocked
system.cpu.dcache.writebacks::.writebacks       116568                       # number of writebacks
system.cpu.dcache.writebacks::total            116568                       # number of writebacks
system.cpu.dcache.demand_mshr_hits::.cpu.data       360460                       # number of demand (read+write) MSHR hits
system.cpu.dcache.demand_mshr_hits::total       360460                       # number of demand (read+write) MSHR hits
system.cpu.dcache.overall_mshr_hits::.cpu.data       360460                       # number of overall MSHR hits
system.cpu.dcache.overall_mshr_hits::total       360460                       # number of overall MSHR hits
system.cpu.dcache.demand_mshr_misses::.cpu.data       118312                       # number of demand (read+write) MSHR misses
system.cpu.dcache.demand_mshr_misses::total       118312                       # number of demand (read+write) MSHR misses
system.cpu.dcache.overall_mshr_misses::.cpu.data       118312                       # number of overall MSHR misses
system.cpu.dcache.overall_mshr_misses::total       118312                       # number of overall MSHR misses
system.cpu.dcache.demand_mshr_miss_latency::.cpu.data   3026963499                       # number of demand (read+write) MSHR miss cycles
system.cpu.dcache.demand_mshr_miss_latency::total   3026963499                       # number of demand (read+write) MSHR miss cycles
system.cpu.dcache.overall_mshr_miss_latency::.cpu.data   3026963499                       # number of overall MSHR miss cycles
system.cpu.dcache.overall_mshr_miss_latency::total   3026963499                       # number of overall MSHR miss cycles
system.cpu.dcache.demand_mshr_miss_rate::.cpu.data     0.016766                       # mshr miss rate for demand accesses
system.cpu.dcache.demand_mshr_miss_rate::total     0.016766                       # mshr miss rate for demand accesses
system.cpu.dcache.overall_mshr_miss_rate::.cpu.data     0.016766                       # mshr miss rate for overall accesses
system.cpu.dcache.overall_mshr_miss_rate::total     0.016766                       # mshr miss rate for overall accesses
system.cpu.dcache.demand_avg_mshr_miss_latency::.cpu.data 25584.585663                       # average overall mshr miss latency
system.cpu.dcache.demand_avg_mshr_miss_latency::total 25584.585663                       # average overall mshr miss latency
system.cpu.dcache.overall_avg_mshr_miss_latency::.cpu.data 25584.585663                       # average overall mshr miss latency
system.cpu.dcache.overall_avg_mshr_miss_latency::total 25584.585663                       # average overall mshr miss latency
system.cpu.dcache.replacements                 117288                       # number of replacements
system.cpu.dcache.ReadReq_hits::.cpu.data      4055377                       # number of ReadReq hits
system.cpu.dcache.ReadReq_hits::total         4055377                       # number of ReadReq hits
system.cpu.dcache.ReadReq_misses::.cpu.data       391246                       # number of ReadReq misses
system.cpu.dcache.ReadReq_misses::total        391246                       # number of ReadReq misses
system.cpu.dcache.ReadReq_miss_latency::.cpu.data   9965017000                       # number of ReadReq miss cycles
system.cpu.dcache.ReadReq_miss_latency::total   9965017000                       # number of ReadReq miss cycles
system.cpu.dcache.ReadReq_accesses::.cpu.data      4446623                       # number of ReadReq accesses(hits+misses)
system.cpu.dcache.ReadReq_accesses::total      4446623                       # number of ReadReq accesses(hits+misses)
system.cpu.dcache.ReadReq_miss_rate::.cpu.data     0.087987                       # miss rate for ReadReq accesses
system.cpu.dcache.ReadReq_miss_rate::total     0.087987                       # miss rate for ReadReq accesses
system.cpu.dcache.ReadReq_avg_miss_latency::.cpu.data 25469.952408                       # average ReadReq miss latency
system.cpu.dcache.ReadReq_avg_miss_latency::total 25469.952408                       # average ReadReq miss latency
system.cpu.dcache.ReadReq_mshr_hits::.cpu.data       286816                       # number of ReadReq MSHR hits
system.cpu.dcache.ReadReq_mshr_hits::total       286816                       # number of ReadReq MSHR hits
system.cpu.dcache.ReadReq_mshr_misses::.cpu.data       104430                       # number of ReadReq MSHR misses
system.cpu.dcache.ReadReq_mshr_misses::total       104430                       # number of ReadReq MSHR misses
system.cpu.dcache.ReadReq_mshr_miss_latency::.cpu.data   2133409500                       # number of ReadReq MSHR miss cycles
system.cpu.dcache.ReadReq_mshr_miss_latency::total   2133409500                       # number of ReadReq MSHR miss cycles
system.cpu.dcache.ReadReq_mshr_miss_rate::.cpu.data     0.023485                       # mshr miss rate for ReadReq accesses
system.cpu.dcache.ReadReq_mshr_miss_rate::total     0.023485                       # mshr miss rate for ReadReq accesses
system.cpu.dcache.ReadReq_avg_mshr_miss_latency::.cpu.data 20429.086469                       # average ReadReq mshr miss latency
system.cpu.dcache.ReadReq_avg_mshr_miss_latency::total 20429.086469                       # average ReadReq mshr miss latency
system.cpu.dcache.WriteReq_hits::.cpu.data      2522402                       # number of WriteReq hits
system.cpu.dcache.WriteReq_hits::total        2522402                       # number of WriteReq hits
system.cpu.dcache.WriteReq_misses::.cpu.data        87526                       # number of WriteReq misses
system.cpu.dcache.WriteReq_misses::total        87526                       # number of WriteReq misses
system.cpu.dcache.WriteReq_miss_latency::.cpu.data   4170939487                       # number of WriteReq miss cycles
system.cpu.dcache.WriteReq_miss_latency::total   4170939487                       # number of WriteReq miss cycles
system.cpu.dcache.WriteReq_accesses::.cpu.data      2609928                       # number of WriteReq accesses(hits+misses)
system.cpu.dcache.WriteReq_accesses::total      2609928                       # number of WriteReq accesses(hits+misses)
system.cpu.dcache.WriteReq_miss_rate::.cpu.data     0.033536                       # miss rate for WriteReq accesses
system.cpu.dcache.WriteReq_miss_rate::total     0.033536                       # miss rate for WriteReq accesses
system.cpu.dcache.WriteReq_avg_miss_latency::.cpu.data 47653.719889                       # average WriteReq miss latency
system.cpu.dcache.WriteReq_avg_miss_latency::total 47653.719889                       # average WriteReq miss latency
system.cpu.dcache.WriteReq_mshr_hits::.cpu.data        73644                       # number of WriteReq MSHR hits
system.cpu.dcache.WriteReq_mshr_hits::total        73644                       # number of WriteReq MSHR hits
system.cpu.dcache.WriteReq_mshr_misses::.cpu.data        13882                       # number of WriteReq MSHR misses
system.cpu.dcache.WriteReq_mshr_misses::total        13882                       # number of WriteReq MSHR misses
system.cpu.dcache.WriteReq_mshr_miss_latency::.cpu.data    893553999                       # number of WriteReq MSHR miss cycles
system.cpu.dcache.WriteReq_mshr_miss_latency::total    893553999                       # number of WriteReq MSHR miss cycles
system.cpu.dcache.WriteReq_mshr_miss_rate::.cpu.data     0.005319                       # mshr miss rate for WriteReq accesses
system.cpu.dcache.WriteReq_mshr_miss_rate::total     0.005319                       # mshr miss rate for WriteReq accesses
system.cpu.dcache.WriteReq_avg_mshr_miss_latency::.cpu.data 64367.814364                       # average WriteReq mshr miss latency
system.cpu.dcache.WriteReq_avg_mshr_miss_latency::total 64367.814364                       # average WriteReq mshr miss latency
system.cpu.dcache.LoadLockedReq_hits::.cpu.data        41235                       # number of LoadLockedReq hits
system.cpu.dcache.LoadLockedReq_hits::total        41235                       # number of LoadLockedReq hits
system.cpu.dcache.LoadLockedReq_misses::.cpu.data            5                       # number of LoadLockedReq misses
system.cpu.dcache.LoadLockedReq_misses::total            5                       # number of LoadLockedReq misses
system.cpu.dcache.LoadLockedReq_miss_latency::.cpu.data       136000                       # number of LoadLockedReq miss cycles
system.cpu.dcache.LoadLockedReq_miss_latency::total       136000                       # number of LoadLockedReq miss cycles
system.cpu.dcache.LoadLockedReq_accesses::.cpu.data        41240                       # number of LoadLockedReq accesses(hits+misses)
system.cpu.dcache.LoadLockedReq_accesses::total        41240                       # number of LoadLockedReq accesses(hits+misses)
system.cpu.dcache.LoadLockedReq_miss_rate::.cpu.data     0.000121                       # miss rate for LoadLockedReq accesses
system.cpu.dcache.LoadLockedReq_miss_rate::total     0.000121                       # miss rate for LoadLockedReq accesses
system.cpu.dcache.LoadLockedReq_avg_miss_latency::.cpu.data        27200                       # average LoadLockedReq miss latency
system.cpu.dcache.LoadLockedReq_avg_miss_latency::total        27200                       # average LoadLockedReq miss latency
system.cpu.dcache.LoadLockedReq_mshr_hits::.cpu.data            5                       # number of LoadLockedReq MSHR hits
system.cpu.dcache.LoadLockedReq_mshr_hits::total            5                       # number of LoadLockedReq MSHR hits
system.cpu.dcache.StoreCondReq_hits::.cpu.data        40026                       # number of StoreCondReq hits
system.cpu.dcache.StoreCondReq_hits::total        40026                       # number of StoreCondReq hits
system.cpu.dcache.StoreCondReq_accesses::.cpu.data        40026                       # number of StoreCondReq accesses(hits+misses)
system.cpu.dcache.StoreCondReq_accesses::total        40026                       # number of StoreCondReq accesses(hits+misses)
system.cpu.dcache.power_state.pwrStateResidencyTicks::UNDEFINED   7160291500                       # Cumulative time (in ticks) in various power states
system.cpu.dcache.tags.tagsinuse           910.127284                       # Cycle average of tags in use
system.cpu.dcache.tags.total_refs             6777352                       # Total number of references to valid blocks.
system.cpu.dcache.tags.sampled_refs            118312                       # Sample count of references to valid blocks.
system.cpu.dcache.tags.avg_refs             57.283724                       # Average number of references to valid blocks.
system.cpu.dcache.tags.warmup_cycle            161000                       # Cycle when the warmup percentage was hit.
system.cpu.dcache.tags.occ_blocks::.cpu.data   910.127284                       # Average occupied blocks per requestor
system.cpu.dcache.tags.occ_percent::.cpu.data     0.888796                       # Average percentage of cache occupancy
system.cpu.dcache.tags.occ_percent::total     0.888796                       # Average percentage of cache occupancy
system.cpu.dcache.tags.occ_task_id_blocks::1024         1024                       # Occupied blocks per task id
system.cpu.dcache.tags.age_task_id_blocks_1024::0           82                       # Occupied blocks per task id
system.cpu.dcache.tags.age_task_id_blocks_1024::1          441                       # Occupied blocks per task id
system.cpu.dcache.tags.age_task_id_blocks_1024::3          501                       # Occupied blocks per task id
system.cpu.dcache.tags.occ_task_id_percent::1024            1                       # Percentage of cache occupancy per task id
system.cpu.dcache.tags.tag_accesses          14393946                       # Number of tag accesses
system.cpu.dcache.tags.data_accesses         14393946                       # Number of data accesses
system.cpu.dcache.tags.power_state.pwrStateResidencyTicks::UNDEFINED   7160291500                       # Cumulative time (in ticks) in various power states
system.cpu.decode.idleCycles                  3408515                       # Number of cycles decode is idle
system.cpu.decode.blockedCycles               5350773                       # Number of cycles decode is blocked
system.cpu.decode.runCycles                   4847775                       # Number of cycles decode is running
system.cpu.decode.unblockCycles                397688                       # Number of cycles decode is unblocking
system.cpu.decode.squashCycles                 267163                       # Number of cycles decode is squashing
system.cpu.decode.branchResolved              2221695                       # Number of times decode resolved a  branch
system.cpu.decode.branchMispred                 10382                       # Number of times decode detected a branch misprediction
system.cpu.decode.decodedInsts               28933586                       # Number of instructions handled by decode
system.cpu.decode.squashedInsts                  1337                       # Number of squashed instructions handled by decode
system.cpu.dtb.instHits                             0                       # ITB inst hits
system.cpu.dtb.instMisses                           0                       # ITB inst misses
system.cpu.dtb.readHits                             0                       # DTB read hits
system.cpu.dtb.readMisses                           0                       # DTB read misses
system.cpu.dtb.writeHits                            0                       # DTB write hits
system.cpu.dtb.writeMisses                          0                       # DTB write misses
system.cpu.dtb.inserts                              0                       # Number of times an entry is inserted into the TLB
system.cpu.dtb.flushTlb                             0                       # Number of times complete TLB was flushed
system.cpu.dtb.flushTlbMva                          0                       # Number of times TLB was flushed by MVA
system.cpu.dtb.flushTlbMvaAsid                      0                       # Number of times TLB was flushed by MVA & ASID
system.cpu.dtb.flushTlbAsid                         0                       # Number of times TLB was flushed by ASID
system.cpu.dtb.flushedEntries                       0                       # Number of entries that have been flushed from TLB
system.cpu.dtb.alignFaults                          0                       # Number of TLB faults due to alignment restrictions
system.cpu.dtb.prefetchFaults                       0                       # Number of TLB faults due to prefetch
system.cpu.dtb.domainFaults                         0                       # Number of TLB faults due to domain restrictions
system.cpu.dtb.permsFaults                          0                       # Number of TLB faults due to permissions restrictions
system.cpu.dtb.readAccesses                         0                       # DTB read accesses
system.cpu.dtb.writeAccesses                        0                       # DTB write accesses
system.cpu.dtb.instAccesses                         0                       # ITB inst accesses
system.cpu.dtb.hits                                 0                       # Total TLB (inst and data) hits
system.cpu.dtb.misses                               0                       # Total TLB (inst and data) misses
system.cpu.dtb.accesses                             0                       # Total TLB (inst and data) accesses
system.cpu.dtb.stage2_mmu.stage2_tlb.instHits            0                       # ITB inst hits
system.cpu.dtb.stage2_mmu.stage2_tlb.instMisses            0                       # ITB inst misses
system.cpu.dtb.stage2_mmu.stage2_tlb.readHits            0                       # DTB read hits
system.cpu.dtb.stage2_mmu.stage2_tlb.readMisses            0                       # DTB read misses
system.cpu.dtb.stage2_mmu.stage2_tlb.writeHits            0                       # DTB write hits
system.cpu.dtb.stage2_mmu.stage2_tlb.writeMisses            0                       # DTB write misses
system.cpu.dtb.stage2_mmu.stage2_tlb.inserts            0                       # Number of times an entry is inserted into the TLB
system.cpu.dtb.stage2_mmu.stage2_tlb.flushTlb            0                       # Number of times complete TLB was flushed
system.cpu.dtb.stage2_mmu.stage2_tlb.flushTlbMva            0                       # Number of times TLB was flushed by MVA
system.cpu.dtb.stage2_mmu.stage2_tlb.flushTlbMvaAsid            0                       # Number of times TLB was flushed by MVA & ASID
system.cpu.dtb.stage2_mmu.stage2_tlb.flushTlbAsid            0                       # Number of times TLB was flushed by ASID
system.cpu.dtb.stage2_mmu.stage2_tlb.flushedEntries            0                       # Number of entries that have been flushed from TLB
system.cpu.dtb.stage2_mmu.stage2_tlb.alignFaults            0                       # Number of TLB faults due to alignment restrictions
system.cpu.dtb.stage2_mmu.stage2_tlb.prefetchFaults            0                       # Number of TLB faults due to prefetch
system.cpu.dtb.stage2_mmu.stage2_tlb.domainFaults            0                       # Number of TLB faults due to domain restrictions
system.cpu.dtb.stage2_mmu.stage2_tlb.permsFaults            0                       # Number of TLB faults due to permissions restrictions
system.cpu.dtb.stage2_mmu.stage2_tlb.readAccesses            0                       # DTB read accesses
system.cpu.dtb.stage2_mmu.stage2_tlb.writeAccesses            0                       # DTB write accesses
system.cpu.dtb.stage2_mmu.stage2_tlb.instAccesses            0                       # ITB inst accesses
system.cpu.dtb.stage2_mmu.stage2_tlb.hits            0                       # Total TLB (inst and data) hits
system.cpu.dtb.stage2_mmu.stage2_tlb.misses            0                       # Total TLB (inst and data) misses
system.cpu.dtb.stage2_mmu.stage2_tlb.accesses            0                       # Total TLB (inst and data) accesses
system.cpu.dtb.stage2_mmu.stage2_tlb.walker.walks            0                       # Table walker walks requested
system.cpu.dtb.stage2_mmu.stage2_tlb.walker.requestOrigin_Requested::Data            0                       # Table walker requests started/completed, data/inst
system.cpu.dtb.stage2_mmu.stage2_tlb.walker.requestOrigin_Requested::Inst            0                       # Table walker requests started/completed, data/inst
system.cpu.dtb.stage2_mmu.stage2_tlb.walker.requestOrigin_Requested::total            0                       # Table walker requests started/completed, data/inst
system.cpu.dtb.stage2_mmu.stage2_tlb.walker.requestOrigin_Completed::Data            0                       # Table walker requests started/completed, data/inst
system.cpu.dtb.stage2_mmu.stage2_tlb.walker.requestOrigin_Completed::Inst            0                       # Table walker requests started/completed, data/inst
system.cpu.dtb.stage2_mmu.stage2_tlb.walker.requestOrigin_Completed::total            0                       # Table walker requests started/completed, data/inst
system.cpu.dtb.stage2_mmu.stage2_tlb.walker.requestOrigin::total            0                       # Table walker requests started/completed, data/inst
system.cpu.dtb.stage2_mmu.stage2_tlb.walker.power_state.pwrStateResidencyTicks::UNDEFINED   7160291500                       # Cumulative time (in ticks) in various power states
system.cpu.dtb.walker.walks                         0                       # Table walker walks requested
system.cpu.dtb.walker.requestOrigin_Requested::Data            0                       # Table walker requests started/completed, data/inst
system.cpu.dtb.walker.requestOrigin_Requested::Inst            0                       # Table walker requests started/completed, data/inst
system.cpu.dtb.walker.requestOrigin_Requested::total            0                       # Table walker requests started/completed, data/inst
system.cpu.dtb.walker.requestOrigin_Completed::Data            0                       # Table walker requests started/completed, data/inst
system.cpu.dtb.walker.requestOrigin_Completed::Inst            0                       # Table walker requests started/completed, data/inst
system.cpu.dtb.walker.requestOrigin_Completed::total            0                       # Table walker requests started/completed, data/inst
system.cpu.dtb.walker.requestOrigin::total            0                       # Table walker requests started/completed, data/inst
system.cpu.dtb.walker.power_state.pwrStateResidencyTicks::UNDEFINED   7160291500                       # Cumulative time (in ticks) in various power states
system.cpu.fetch.icacheStallCycles            3960068                       # Number of cycles fetch is stalled on an Icache miss
system.cpu.fetch.insts                       25118333                       # Number of instructions fetch has processed
system.cpu.fetch.branches                     6296404                       # Number of branches that fetch encountered
system.cpu.fetch.predictedBranches            3750172                       # Number of branches that fetch has predicted taken
system.cpu.fetch.cycles                      10044016                       # Number of cycles fetch has run and was not squashing or blocked
system.cpu.fetch.squashCycles                  535060                       # Number of cycles fetch has spent squashing
system.cpu.fetch.miscStallCycles                   25                       # Number of cycles fetch has spent waiting on interrupts,or bad addresses, or out of MSHRs
system.cpu.fetch.pendingTrapStallCycles           146                       # Number of stall cycles due to pending traps
system.cpu.fetch.icacheWaitRetryStallCycles          129                       # Number of stall cycles due to full MSHR
system.cpu.fetch.cacheLines                   3780602                       # Number of cache lines fetched
system.cpu.fetch.icacheSquashes                 77705                       # Number of outstanding Icache misses that were squashed
system.cpu.fetch.nisnDist::samples           14271914                       # Number of instructions fetched each cycle (Total)
system.cpu.fetch.nisnDist::mean              2.229425                       # Number of instructions fetched each cycle (Total)
system.cpu.fetch.nisnDist::stdev             3.065729                       # Number of instructions fetched each cycle (Total)
system.cpu.fetch.nisnDist::underflows               0      0.00%      0.00% # Number of instructions fetched each cycle (Total)
system.cpu.fetch.nisnDist::0                  8182034     57.33%     57.33% # Number of instructions fetched each cycle (Total)
system.cpu.fetch.nisnDist::1                   384061      2.69%     60.02% # Number of instructions fetched each cycle (Total)
system.cpu.fetch.nisnDist::2                   930826      6.52%     66.54% # Number of instructions fetched each cycle (Total)
system.cpu.fetch.nisnDist::3                   415959      2.91%     69.46% # Number of instructions fetched each cycle (Total)
system.cpu.fetch.nisnDist::4                  1139267      7.98%     77.44% # Number of instructions fetched each cycle (Total)
system.cpu.fetch.nisnDist::5                   354883      2.49%     79.93% # Number of instructions fetched each cycle (Total)
system.cpu.fetch.nisnDist::6                   329672      2.31%     82.24% # Number of instructions fetched each cycle (Total)
system.cpu.fetch.nisnDist::7                   266637      1.87%     84.10% # Number of instructions fetched each cycle (Total)
system.cpu.fetch.nisnDist::8                  2268575     15.90%    100.00% # Number of instructions fetched each cycle (Total)
system.cpu.fetch.nisnDist::overflows                0      0.00%    100.00% # Number of instructions fetched each cycle (Total)
system.cpu.fetch.nisnDist::min_value                0                       # Number of instructions fetched each cycle (Total)
system.cpu.fetch.nisnDist::max_value                8                       # Number of instructions fetched each cycle (Total)
system.cpu.fetch.nisnDist::total             14271914                       # Number of instructions fetched each cycle (Total)
system.cpu.fetch.branchRate                  0.439675                       # Number of branch fetches per cycle
system.cpu.fetch.rate                        1.754002                       # Number of inst fetches per cycle
system.cpu.icache.demand_hits::.cpu.inst      3779557                       # number of demand (read+write) hits
system.cpu.icache.demand_hits::total          3779557                       # number of demand (read+write) hits
system.cpu.icache.overall_hits::.cpu.inst      3779557                       # number of overall hits
system.cpu.icache.overall_hits::total         3779557                       # number of overall hits
system.cpu.icache.demand_misses::.cpu.inst         1045                       # number of demand (read+write) misses
system.cpu.icache.demand_misses::total           1045                       # number of demand (read+write) misses
system.cpu.icache.overall_misses::.cpu.inst         1045                       # number of overall misses
system.cpu.icache.overall_misses::total          1045                       # number of overall misses
system.cpu.icache.demand_miss_latency::.cpu.inst     69598000                       # number of demand (read+write) miss cycles
system.cpu.icache.demand_miss_latency::total     69598000                       # number of demand (read+write) miss cycles
system.cpu.icache.overall_miss_latency::.cpu.inst     69598000                       # number of overall miss cycles
system.cpu.icache.overall_miss_latency::total     69598000                       # number of overall miss cycles
system.cpu.icache.demand_accesses::.cpu.inst      3780602                       # number of demand (read+write) accesses
system.cpu.icache.demand_accesses::total      3780602                       # number of demand (read+write) accesses
system.cpu.icache.overall_accesses::.cpu.inst      3780602                       # number of overall (read+write) accesses
system.cpu.icache.overall_accesses::total      3780602                       # number of overall (read+write) accesses
system.cpu.icache.demand_miss_rate::.cpu.inst     0.000276                       # miss rate for demand accesses
system.cpu.icache.demand_miss_rate::total     0.000276                       # miss rate for demand accesses
system.cpu.icache.overall_miss_rate::.cpu.inst     0.000276                       # miss rate for overall accesses
system.cpu.icache.overall_miss_rate::total     0.000276                       # miss rate for overall accesses
system.cpu.icache.demand_avg_miss_latency::.cpu.inst 66600.956938                       # average overall miss latency
system.cpu.icache.demand_avg_miss_latency::total 66600.956938                       # average overall miss latency
system.cpu.icache.overall_avg_miss_latency::.cpu.inst 66600.956938                       # average overall miss latency
system.cpu.icache.overall_avg_miss_latency::total 66600.956938                       # average overall miss latency
system.cpu.icache.blocked_cycles::no_mshrs          788                       # number of cycles access was blocked
system.cpu.icache.blocked_cycles::no_targets            0                       # number of cycles access was blocked
system.cpu.icache.blocked::no_mshrs                11                       # number of cycles access was blocked
system.cpu.icache.blocked::no_targets               0                       # number of cycles access was blocked
system.cpu.icache.avg_blocked_cycles::no_mshrs    71.636364                       # average number of cycles each access was blocked
system.cpu.icache.avg_blocked_cycles::no_targets          nan                       # average number of cycles each access was blocked
system.cpu.icache.writebacks::.writebacks          300                       # number of writebacks
system.cpu.icache.writebacks::total               300                       # number of writebacks
system.cpu.icache.demand_mshr_hits::.cpu.inst          291                       # number of demand (read+write) MSHR hits
system.cpu.icache.demand_mshr_hits::total          291                       # number of demand (read+write) MSHR hits
system.cpu.icache.overall_mshr_hits::.cpu.inst          291                       # number of overall MSHR hits
system.cpu.icache.overall_mshr_hits::total          291                       # number of overall MSHR hits
system.cpu.icache.demand_mshr_misses::.cpu.inst          754                       # number of demand (read+write) MSHR misses
system.cpu.icache.demand_mshr_misses::total          754                       # number of demand (read+write) MSHR misses
system.cpu.icache.overall_mshr_misses::.cpu.inst          754                       # number of overall MSHR misses
system.cpu.icache.overall_mshr_misses::total          754                       # number of overall MSHR misses
system.cpu.icache.demand_mshr_miss_latency::.cpu.inst     53778500                       # number of demand (read+write) MSHR miss cycles
system.cpu.icache.demand_mshr_miss_latency::total     53778500                       # number of demand (read+write) MSHR miss cycles
system.cpu.icache.overall_mshr_miss_latency::.cpu.inst     53778500                       # number of overall MSHR miss cycles
system.cpu.icache.overall_mshr_miss_latency::total     53778500                       # number of overall MSHR miss cycles
system.cpu.icache.demand_mshr_miss_rate::.cpu.inst     0.000199                       # mshr miss rate for demand accesses
system.cpu.icache.demand_mshr_miss_rate::total     0.000199                       # mshr miss rate for demand accesses
system.cpu.icache.overall_mshr_miss_rate::.cpu.inst     0.000199                       # mshr miss rate for overall accesses
system.cpu.icache.overall_mshr_miss_rate::total     0.000199                       # mshr miss rate for overall accesses
system.cpu.icache.demand_avg_mshr_miss_latency::.cpu.inst 71324.270557                       # average overall mshr miss latency
system.cpu.icache.demand_avg_mshr_miss_latency::total 71324.270557                       # average overall mshr miss latency
system.cpu.icache.overall_avg_mshr_miss_latency::.cpu.inst 71324.270557                       # average overall mshr miss latency
system.cpu.icache.overall_avg_mshr_miss_latency::total 71324.270557                       # average overall mshr miss latency
system.cpu.icache.replacements                    300                       # number of replacements
system.cpu.icache.ReadReq_hits::.cpu.inst      3779557                       # number of ReadReq hits
system.cpu.icache.ReadReq_hits::total         3779557                       # number of ReadReq hits
system.cpu.icache.ReadReq_misses::.cpu.inst         1045                       # number of ReadReq misses
system.cpu.icache.ReadReq_misses::total          1045                       # number of ReadReq misses
system.cpu.icache.ReadReq_miss_latency::.cpu.inst     69598000                       # number of ReadReq miss cycles
system.cpu.icache.ReadReq_miss_latency::total     69598000                       # number of ReadReq miss cycles
system.cpu.icache.ReadReq_accesses::.cpu.inst      3780602                       # number of ReadReq accesses(hits+misses)
system.cpu.icache.ReadReq_accesses::total      3780602                       # number of ReadReq accesses(hits+misses)
system.cpu.icache.ReadReq_miss_rate::.cpu.inst     0.000276                       # miss rate for ReadReq accesses
system.cpu.icache.ReadReq_miss_rate::total     0.000276                       # miss rate for ReadReq accesses
system.cpu.icache.ReadReq_avg_miss_latency::.cpu.inst 66600.956938                       # average ReadReq miss latency
system.cpu.icache.ReadReq_avg_miss_latency::total 66600.956938                       # average ReadReq miss latency
system.cpu.icache.ReadReq_mshr_hits::.cpu.inst          291                       # number of ReadReq MSHR hits
system.cpu.icache.ReadReq_mshr_hits::total          291                       # number of ReadReq MSHR hits
system.cpu.icache.ReadReq_mshr_misses::.cpu.inst          754                       # number of ReadReq MSHR misses
system.cpu.icache.ReadReq_mshr_misses::total          754                       # number of ReadReq MSHR misses
system.cpu.icache.ReadReq_mshr_miss_latency::.cpu.inst     53778500                       # number of ReadReq MSHR miss cycles
system.cpu.icache.ReadReq_mshr_miss_latency::total     53778500                       # number of ReadReq MSHR miss cycles
system.cpu.icache.ReadReq_mshr_miss_rate::.cpu.inst     0.000199                       # mshr miss rate for ReadReq accesses
system.cpu.icache.ReadReq_mshr_miss_rate::total     0.000199                       # mshr miss rate for ReadReq accesses
system.cpu.icache.ReadReq_avg_mshr_miss_latency::.cpu.inst 71324.270557                       # average ReadReq mshr miss latency
system.cpu.icache.ReadReq_avg_mshr_miss_latency::total 71324.270557                       # average ReadReq mshr miss latency
system.cpu.icache.power_state.pwrStateResidencyTicks::UNDEFINED   7160291500                       # Cumulative time (in ticks) in various power states
system.cpu.icache.tags.tagsinuse           415.892357                       # Cycle average of tags in use
system.cpu.icache.tags.total_refs             3780311                       # Total number of references to valid blocks.
system.cpu.icache.tags.sampled_refs               754                       # Sample count of references to valid blocks.
system.cpu.icache.tags.avg_refs           5013.675066                       # Average number of references to valid blocks.
system.cpu.icache.tags.warmup_cycle             87500                       # Cycle when the warmup percentage was hit.
system.cpu.icache.tags.occ_blocks::.cpu.inst   415.892357                       # Average occupied blocks per requestor
system.cpu.icache.tags.occ_percent::.cpu.inst     0.812290                       # Average percentage of cache occupancy
system.cpu.icache.tags.occ_percent::total     0.812290                       # Average percentage of cache occupancy
system.cpu.icache.tags.occ_task_id_blocks::1024          454                       # Occupied blocks per task id
system.cpu.icache.tags.age_task_id_blocks_1024::0           61                       # Occupied blocks per task id
system.cpu.icache.tags.age_task_id_blocks_1024::3          393                       # Occupied blocks per task id
system.cpu.icache.tags.occ_task_id_percent::1024     0.886719                       # Percentage of cache occupancy per task id
system.cpu.icache.tags.tag_accesses           7561958                       # Number of tag accesses
system.cpu.icache.tags.data_accesses          7561958                       # Number of data accesses
system.cpu.icache.tags.power_state.pwrStateResidencyTicks::UNDEFINED   7160291500                       # Cumulative time (in ticks) in various power states
system.cpu.itb.instHits                             0                       # ITB inst hits
system.cpu.itb.instMisses                           0                       # ITB inst misses
system.cpu.itb.readHits                             0                       # DTB read hits
system.cpu.itb.readMisses                           0                       # DTB read misses
system.cpu.itb.writeHits                            0                       # DTB write hits
system.cpu.itb.writeMisses                          0                       # DTB write misses
system.cpu.itb.inserts                              0                       # Number of times an entry is inserted into the TLB
system.cpu.itb.flushTlb                             0                       # Number of times complete TLB was flushed
system.cpu.itb.flushTlbMva                          0                       # Number of times TLB was flushed by MVA
system.cpu.itb.flushTlbMvaAsid                      0                       # Number of times TLB was flushed by MVA & ASID
system.cpu.itb.flushTlbAsid                         0                       # Number of times TLB was flushed by ASID
system.cpu.itb.flushedEntries                       0                       # Number of entries that have been flushed from TLB
system.cpu.itb.alignFaults                          0                       # Number of TLB faults due to alignment restrictions
system.cpu.itb.prefetchFaults                       0                       # Number of TLB faults due to prefetch
system.cpu.itb.domainFaults                         0                       # Number of TLB faults due to domain restrictions
system.cpu.itb.permsFaults                          0                       # Number of TLB faults due to permissions restrictions
system.cpu.itb.readAccesses                         0                       # DTB read accesses
system.cpu.itb.writeAccesses                        0                       # DTB write accesses
system.cpu.itb.instAccesses                         0                       # ITB inst accesses
system.cpu.itb.hits                                 0                       # Total TLB (inst and data) hits
system.cpu.itb.misses                               0                       # Total TLB (inst and data) misses
system.cpu.itb.accesses                             0                       # Total TLB (inst and data) accesses
system.cpu.itb.stage2_mmu.stage2_tlb.instHits            0                       # ITB inst hits
system.cpu.itb.stage2_mmu.stage2_tlb.instMisses            0                       # ITB inst misses
system.cpu.itb.stage2_mmu.stage2_tlb.readHits            0                       # DTB read hits
system.cpu.itb.stage2_mmu.stage2_tlb.readMisses            0                       # DTB read misses
system.cpu.itb.stage2_mmu.stage2_tlb.writeHits            0                       # DTB write hits
system.cpu.itb.stage2_mmu.stage2_tlb.writeMisses            0                       # DTB write misses
system.cpu.itb.stage2_mmu.stage2_tlb.inserts            0                       # Number of times an entry is inserted into the TLB
system.cpu.itb.stage2_mmu.stage2_tlb.flushTlb            0                       # Number of times complete TLB was flushed
system.cpu.itb.stage2_mmu.stage2_tlb.flushTlbMva            0                       # Number of times TLB was flushed by MVA
system.cpu.itb.stage2_mmu.stage2_tlb.flushTlbMvaAsid            0                       # Number of times TLB was flushed by MVA & ASID
system.cpu.itb.stage2_mmu.stage2_tlb.flushTlbAsid            0                       # Number of times TLB was flushed by ASID
system.cpu.itb.stage2_mmu.stage2_tlb.flushedEntries            0                       # Number of entries that have been flushed from TLB
system.cpu.itb.stage2_mmu.stage2_tlb.alignFaults            0                       # Number of TLB faults due to alignment restrictions
system.cpu.itb.stage2_mmu.stage2_tlb.prefetchFaults            0                       # Number of TLB faults due to prefetch
[...]
system.mem_ctrls.dram.bw_read::.cpu.data    193458046                       # Total read bandwidth from this memory (bytes/s)
system.mem_ctrls.dram.bw_read::total        199258927                       # Total read bandwidth from this memory (bytes/s)
system.mem_ctrls.dram.bw_inst_read::.cpu.inst      5800881                       # Instruction read bandwidth from this memory (bytes/s)
system.mem_ctrls.dram.bw_inst_read::total      5800881                       # Instruction read bandwidth from this memory (bytes/s)
system.mem_ctrls.dram.bw_total::.cpu.inst      5800881                       # Total bandwidth to/from this memory (bytes/s)
system.mem_ctrls.dram.bw_total::.cpu.data    193458046                       # Total bandwidth to/from this memory (bytes/s)
system.mem_ctrls.dram.bw_total::total       199258927                       # Total bandwidth to/from this memory (bytes/s)
system.mem_ctrls.dram.readBursts                22293                       # Number of DRAM read bursts
system.mem_ctrls.dram.writeBursts                   0                       # Number of DRAM write bursts
system.mem_ctrls.dram.perBankRdBursts::0         1542                       # Per bank write bursts
system.mem_ctrls.dram.perBankRdBursts::1         1423                       # Per bank write bursts
system.mem_ctrls.dram.perBankRdBursts::2         1439                       # Per bank write bursts
system.mem_ctrls.dram.perBankRdBursts::3         1413                       # Per bank write bursts
system.mem_ctrls.dram.perBankRdBursts::4         1303                       # Per bank write bursts
system.mem_ctrls.dram.perBankRdBursts::5         1293                       # Per bank write bursts
system.mem_ctrls.dram.perBankRdBursts::6         1331                       # Per bank write bursts
system.mem_ctrls.dram.perBankRdBursts::7         1311                       # Per bank write bursts
system.mem_ctrls.dram.perBankRdBursts::8         1249                       # Per bank write bursts
system.mem_ctrls.dram.perBankRdBursts::9         1361                       # Per bank write bursts
system.mem_ctrls.dram.perBankRdBursts::10         1278                       # Per bank write bursts
system.mem_ctrls.dram.perBankRdBursts::11         1377                       # Per bank write bursts
system.mem_ctrls.dram.perBankRdBursts::12         1520                       # Per bank write bursts
system.mem_ctrls.dram.perBankRdBursts::13         1494                       # Per bank write bursts
system.mem_ctrls.dram.perBankRdBursts::14         1457                       # Per bank write bursts
system.mem_ctrls.dram.perBankRdBursts::15         1502                       # Per bank write bursts
system.mem_ctrls.dram.perBankWrBursts::0            0                       # Per bank write bursts
system.mem_ctrls.dram.perBankWrBursts::1            0                       # Per bank write bursts
system.mem_ctrls.dram.perBankWrBursts::2            0                       # Per bank write bursts
system.mem_ctrls.dram.perBankWrBursts::3            0                       # Per bank write bursts
system.mem_ctrls.dram.perBankWrBursts::4            0                       # Per bank write bursts
system.mem_ctrls.dram.perBankWrBursts::5            0                       # Per bank write bursts
system.mem_ctrls.dram.perBankWrBursts::6            0                       # Per bank write bursts
system.mem_ctrls.dram.perBankWrBursts::7            0                       # Per bank write bursts
system.mem_ctrls.dram.perBankWrBursts::8            0                       # Per bank write bursts
system.mem_ctrls.dram.perBankWrBursts::9            0                       # Per bank write bursts
system.mem_ctrls.dram.perBankWrBursts::10            0                       # Per bank write bursts
system.mem_ctrls.dram.perBankWrBursts::11            0                       # Per bank write bursts
system.mem_ctrls.dram.perBankWrBursts::12            0                       # Per bank write bursts
system.mem_ctrls.dram.perBankWrBursts::13            0                       # Per bank write bursts
system.mem_ctrls.dram.perBankWrBursts::14            0                       # Per bank write bursts
system.mem_ctrls.dram.perBankWrBursts::15            0                       # Per bank write bursts
system.mem_ctrls.dram.totQLat               316330750                       # Total ticks spent queuing
system.mem_ctrls.dram.totBusLat             111465000                       # Total ticks spent in databus transfers
system.mem_ctrls.dram.totMemAccLat          734324500                       # Total ticks spent from burst creation until serviced by the DRAM
system.mem_ctrls.dram.avgQLat                14189.69                       # Average queueing delay per DRAM burst
system.mem_ctrls.dram.avgBusLat               5000.00                       # Average bus latency per DRAM burst
system.mem_ctrls.dram.avgMemAccLat           32939.69                       # Average memory access latency per DRAM burst
system.mem_ctrls.dram.readRowHits               11862                       # Number of row buffer hits during reads
system.mem_ctrls.dram.writeRowHits                  0                       # Number of row buffer hits during writes
system.mem_ctrls.dram.readRowHitRate            53.21                       # Row buffer hit rate for reads
system.mem_ctrls.dram.writeRowHitRate             nan                       # Row buffer hit rate for writes
system.mem_ctrls.dram.bytesPerActivate::samples        10423                       # Bytes accessed per row activation
system.mem_ctrls.dram.bytesPerActivate::mean   136.713038                       # Bytes accessed per row activation
system.mem_ctrls.dram.bytesPerActivate::gmean    84.903861                       # Bytes accessed per row activation
system.mem_ctrls.dram.bytesPerActivate::stdev   227.146854                       # Bytes accessed per row activation
system.mem_ctrls.dram.bytesPerActivate::0-127         8622     82.72%     82.72% # Bytes accessed per row activation
system.mem_ctrls.dram.bytesPerActivate::128-255          866      8.31%     91.03% # Bytes accessed per row activation
system.mem_ctrls.dram.bytesPerActivate::256-383           77      0.74%     91.77% # Bytes accessed per row activation
system.mem_ctrls.dram.bytesPerActivate::384-511           87      0.83%     92.60% # Bytes accessed per row activation
system.mem_ctrls.dram.bytesPerActivate::512-639          144      1.38%     93.98% # Bytes accessed per row activation
system.mem_ctrls.dram.bytesPerActivate::640-767           37      0.35%     94.34% # Bytes accessed per row activation
system.mem_ctrls.dram.bytesPerActivate::768-895           26      0.25%     94.59% # Bytes accessed per row activation
system.mem_ctrls.dram.bytesPerActivate::896-1023           31      0.30%     94.89% # Bytes accessed per row activation
system.mem_ctrls.dram.bytesPerActivate::1024-1151          533      5.11%    100.00% # Bytes accessed per row activation
system.mem_ctrls.dram.bytesPerActivate::total        10423                       # Bytes accessed per row activation
system.mem_ctrls.dram.bytesRead               1426752                       # Total number of bytes read from DRAM
system.mem_ctrls.dram.bytesWritten                  0                       # Total number of bytes written to DRAM
system.mem_ctrls.dram.avgRdBW              199.258927                       # Average DRAM read bandwidth in MiBytes/s
system.mem_ctrls.dram.avgWrBW                       0                       # Average DRAM write bandwidth in MiBytes/s
system.mem_ctrls.dram.peakBW                 12800.00                       # Theoretical peak bandwidth in MiByte/s
system.mem_ctrls.dram.busUtil                    1.56                       # Data bus utilization in percentage
system.mem_ctrls.dram.busUtilRead                1.56                       # Data bus utilization in percentage for reads
system.mem_ctrls.dram.busUtilWrite               0.00                       # Data bus utilization in percentage for writes
system.mem_ctrls.dram.pageHitRate               53.21                       # Row buffer hit rate, read and write combined
system.mem_ctrls.dram.power_state.pwrStateResidencyTicks::UNDEFINED   7160291500                       # Cumulative time (in ticks) in various power states
system.mem_ctrls.dram.rank0.actEnergy        37684920                       # Energy for activate commands per rank (pJ)
system.mem_ctrls.dram.rank0.preEnergy        20018625                       # Energy for precharge commands per rank (pJ)
system.mem_ctrls.dram.rank0.readEnergy       78932700                       # Energy for read commands per rank (pJ)
system.mem_ctrls.dram.rank0.writeEnergy             0                       # Energy for write commands per rank (pJ)
system.mem_ctrls.dram.rank0.refreshEnergy 564854160.000000                       # Energy for refresh commands per rank (pJ)
system.mem_ctrls.dram.rank0.actBackEnergy   1138755120                       # Energy for active background per rank (pJ)
system.mem_ctrls.dram.rank0.preBackEnergy   1790600640                       # Energy for precharge background per rank (pJ)
system.mem_ctrls.dram.rank0.actPowerDownEnergy            0                       # Energy for active power-down per rank (pJ)
system.mem_ctrls.dram.rank0.prePowerDownEnergy            0                       # Energy for precharge power-down per rank (pJ)
system.mem_ctrls.dram.rank0.selfRefreshEnergy            0                       # Energy for self refresh per rank (pJ)
system.mem_ctrls.dram.rank0.totalEnergy    3630846165                       # Total energy per rank (pJ)
system.mem_ctrls.dram.rank0.averagePower   507.080775                       # Core power per rank (mW)
system.mem_ctrls.dram.rank0.totalIdleTime            0                       # Total Idle time Per DRAM Rank
system.mem_ctrls.dram.rank0.pwrStateTime::IDLE   4642947750                       # Time in different power states
system.mem_ctrls.dram.rank0.pwrStateTime::REF    238940000                       # Time in different power states
system.mem_ctrls.dram.rank0.pwrStateTime::SREF            0                       # Time in different power states
system.mem_ctrls.dram.rank0.pwrStateTime::PRE_PDN            0                       # Time in different power states
system.mem_ctrls.dram.rank0.pwrStateTime::ACT   2278403750                       # Time in different power states
system.mem_ctrls.dram.rank0.pwrStateTime::ACT_PDN            0                       # Time in different power states
system.mem_ctrls.dram.rank1.actEnergy        36792420                       # Energy for activate commands per rank (pJ)
system.mem_ctrls.dram.rank1.preEnergy        19536660                       # Energy for precharge commands per rank (pJ)
system.mem_ctrls.dram.rank1.readEnergy       80239320                       # Energy for read commands per rank (pJ)
system.mem_ctrls.dram.rank1.writeEnergy             0                       # Energy for write commands per rank (pJ)
system.mem_ctrls.dram.rank1.refreshEnergy 564854160.000000                       # Energy for refresh commands per rank (pJ)
system.mem_ctrls.dram.rank1.actBackEnergy   1177662180                       # Energy for active background per rank (pJ)
system.mem_ctrls.dram.rank1.preBackEnergy   1757836800                       # Energy for precharge background per rank (pJ)
system.mem_ctrls.dram.rank1.actPowerDownEnergy            0                       # Energy for active power-down per rank (pJ)
system.mem_ctrls.dram.rank1.prePowerDownEnergy            0                       # Energy for precharge power-down per rank (pJ)
system.mem_ctrls.dram.rank1.selfRefreshEnergy            0                       # Energy for self refresh per rank (pJ)
system.mem_ctrls.dram.rank1.totalEnergy    3636921540                       # Total energy per rank (pJ)
system.mem_ctrls.dram.rank1.averagePower   507.929257                       # Core power per rank (mW)
system.mem_ctrls.dram.rank1.totalIdleTime            0                       # Total Idle time Per DRAM Rank
system.mem_ctrls.dram.rank1.pwrStateTime::IDLE   4557633250                       # Time in different power states
system.mem_ctrls.dram.rank1.pwrStateTime::REF    238940000                       # Time in different power states
system.mem_ctrls.dram.rank1.pwrStateTime::SREF            0                       # Time in different power states
system.mem_ctrls.dram.rank1.pwrStateTime::PRE_PDN            0                       # Time in different power states
system.mem_ctrls.dram.rank1.pwrStateTime::ACT   2363718250                       # Time in different power states
system.mem_ctrls.dram.rank1.pwrStateTime::ACT_PDN            0                       # Time in different power states
system.mem_ctrls.power_state.pwrStateResidencyTicks::UNDEFINED   7160291500                       # Cumulative time (in ticks) in various power states
system.membus.trans_dist::ReadResp              10953                       # Transaction distribution
system.membus.trans_dist::ReadExReq             11340                       # Transaction distribution
system.membus.trans_dist::ReadExResp            11340                       # Transaction distribution
system.membus.trans_dist::ReadSharedReq         10953                       # Transaction distribution
system.membus.pkt_count_system.l2.mem_side_port::system.mem_ctrls.port        44586                       # Packet count per connected requestor and responder (bytes)
system.membus.pkt_count::total                  44586                       # Packet count per connected requestor and responder (bytes)
system.membus.pkt_size_system.l2.mem_side_port::system.mem_ctrls.port      1426752                       # Cumulative packet size per connected requestor and responder (bytes)
system.membus.pkt_size::total                 1426752                       # Cumulative packet size per connected requestor and responder (bytes)
system.membus.snoops                                0                       # Total snoops (count)
system.membus.snoopTraffic                          0                       # Total snoop traffic (bytes)
system.membus.snoop_fanout::samples             22293                       # Request fanout histogram
system.membus.snoop_fanout::mean                    0                       # Request fanout histogram
system.membus.snoop_fanout::stdev                   0                       # Request fanout histogram
system.membus.snoop_fanout::underflows              0      0.00%      0.00% # Request fanout histogram
system.membus.snoop_fanout::0                   22293    100.00%    100.00% # Request fanout histogram
system.membus.snoop_fanout::1                       0      0.00%    100.00% # Request fanout histogram
system.membus.snoop_fanout::overflows               0      0.00%    100.00% # Request fanout histogram
system.membus.snoop_fanout::min_value               0                       # Request fanout histogram
system.membus.snoop_fanout::max_value               0                       # Request fanout histogram
system.membus.snoop_fanout::total               22293                       # Request fanout histogram
system.membus.power_state.pwrStateResidencyTicks::UNDEFINED   7160291500                       # Cumulative time (in ticks) in various power states
system.membus.reqLayer0.occupancy            30961000                       # Layer occupancy (ticks)
system.membus.reqLayer0.utilization               0.4                       # Layer utilization (%)
system.membus.respLayer1.occupancy          121277500                       # Layer occupancy (ticks)
system.membus.respLayer1.utilization              1.7                       # Layer utilization (%)
system.tol2bus.trans_dist::ReadResp            105184                       # Transaction distribution
system.tol2bus.trans_dist::WritebackDirty       116568                       # Transaction distribution
system.tol2bus.trans_dist::WritebackClean          300                       # Transaction distribution
system.tol2bus.trans_dist::CleanEvict             720                       # Transaction distribution
system.tol2bus.trans_dist::ReadExReq            13882                       # Transaction distribution
system.tol2bus.trans_dist::ReadExResp           13882                       # Transaction distribution
system.tol2bus.trans_dist::ReadCleanReq           754                       # Transaction distribution
system.tol2bus.trans_dist::ReadSharedReq       104430                       # Transaction distribution
system.tol2bus.pkt_count_system.cpu.icache.mem_side_port::system.l2.cpu_side_port         1808                       # Packet count per connected requestor and responder (bytes)
system.tol2bus.pkt_count_system.cpu.dcache.mem_side_port::system.l2.cpu_side_port       353912                       # Packet count per connected requestor and responder (bytes)
system.tol2bus.pkt_count::total                355720                       # Packet count per connected requestor and responder (bytes)
system.tol2bus.pkt_size_system.cpu.icache.mem_side_port::system.l2.cpu_side_port        67456                       # Cumulative packet size per connected requestor and responder (bytes)
system.tol2bus.pkt_size_system.cpu.dcache.mem_side_port::system.l2.cpu_side_port     15032320                       # Cumulative packet size per connected requestor and responder (bytes)
system.tol2bus.pkt_size::total               15099776                       # Cumulative packet size per connected requestor and responder (bytes)
system.tol2bus.snoops                               0                       # Total snoops (count)
system.tol2bus.snoopTraffic                         0                       # Total snoop traffic (bytes)
system.tol2bus.snoop_fanout::samples           119066                       # Request fanout histogram
system.tol2bus.snoop_fanout::mean            0.000789                       # Request fanout histogram
system.tol2bus.snoop_fanout::stdev           0.028087                       # Request fanout histogram
system.tol2bus.snoop_fanout::underflows             0      0.00%      0.00% # Request fanout histogram
system.tol2bus.snoop_fanout::0                 118972     99.92%     99.92% # Request fanout histogram
system.tol2bus.snoop_fanout::1                     94      0.08%    100.00% # Request fanout histogram
system.tol2bus.snoop_fanout::2                      0      0.00%    100.00% # Request fanout histogram
system.tol2bus.snoop_fanout::overflows              0      0.00%    100.00% # Request fanout histogram
system.tol2bus.snoop_fanout::min_value              0                       # Request fanout histogram
system.tol2bus.snoop_fanout::max_value              1                       # Request fanout histogram
system.tol2bus.snoop_fanout::total             119066                       # Request fanout histogram
system.tol2bus.power_state.pwrStateResidencyTicks::UNDEFINED   7160291500                       # Cumulative time (in ticks) in various power states
system.tol2bus.reqLayer0.occupancy          235195000                       # Layer occupancy (ticks)
system.tol2bus.reqLayer0.utilization              3.3                       # Layer utilization (%)
system.tol2bus.respLayer0.occupancy           1131499                       # Layer occupancy (ticks)
system.tol2bus.respLayer0.utilization             0.0                       # Layer utilization (%)
system.tol2bus.respLayer1.occupancy         177472990                       # Layer occupancy (ticks)
system.tol2bus.respLayer1.utilization             2.5                       # Layer utilization (%)
system.voltage_domain.voltage                       1                       # Voltage in Volts

---------- End Simulation Statistics   ----------
